-------------------------------------------------------
          Amber 18 SANDER                              2018
          -------------------------------------------------------

  [-O]verwriting output

File Assignments:

 Here is the input file:

MD with GB7
 &cntrl
  nstlim = 10000, dt = 0.002,
  ntwr = 5000, ntwx = 500,
  ntc = 2, ntf = 2,
  ntt = 3, temp0 = 300, gamma_ln = 1.0,
  ntb = 0, igb = 7, cut = 9999.0,
  ifqnt = 1,
 /

 &qmmm
  qmmask = ':305', qmcharge = 0,
  qm_theory = 'RM1', qmcut = 20.0,
 /

--------------------------------------------------------------------------------
   1.  RESOURCE   USE:
--------------------------------------------------------------------------------

 NATOM  =    4682 NTYPES =      25 NBONH =    2317 MBONA  =    2418
 NTHETH =    5239 MTHETA =    3286 NPHIH =   10797 MPHIA  =   10500
 NHPARM =       0 NPARM  =       0 NNB   =   25783 NRES   =     305
 NBONA  =    2418 NTHETA =    3286 NPHIA =   10500 NUMBND =      87
 NUMANG =     200 NPTRA  =     219 NATYP =      46 NPHB   =       0
 IFBOX  =       0 NMXRS  =      36 IFCAP =       0 NEXTRA =       0
 NCOPY  =       0

 Implicit solvent radii are ArgH and AspGluO modified Bondi2 radii (mbondi3)
 Replacing prmtop screening parameters with GBn (igb=7) values

LOADING THE QUANTUM ATOMS AS GROUPS
     Mask :305; matches    36 atoms

--------------------------------------------------------------------------------
   2.  CONTROL  DATA  FOR  THE  RUN
--------------------------------------------------------------------------------

default_name

General flags:
     imin    =       0, nmropt  =       0

Nature and format of input:
     ntx     =       1, irest   =       0, ntrx    =       1

Nature and format of output:
     ntxo    =       2, ntpr    =      50, ntrx    =       1, ntwr    =    5000
     iwrap   =       0, ntwx    =     500, ntwv    =       0, ntwe    =       0
     ioutfm  =       1, ntwprt  =       0, idecomp =       0, rbornstat=      0

Potential function:
     ntf     =       2, ntb     =       0, igb     =       7, nsnb    =      25
     ipol    =       0, gbsa    =       0, iesp    =       0
     dielc   =   1.00000, cut     =9999.00000, intdiel =   1.00000
     saltcon =   0.00000, offset  =   0.09000, gbalpha=    1.09511
     gbbeta  =   1.90793, gbgamma =   2.50798, surften =   0.00500
     rdt     =   0.00000, rgbmax  =  25.00000  extdiel =  78.50000
     alpb  =        0

Frozen or restrained atoms:
     ibelly  =       0, ntr     =       0

Molecular dynamics:
     nstlim  =     10000, nscm    =      1000, nrespa  =         1
     t       =   0.00000, dt      =   0.00200, vlimit  =  20.00000

Langevin dynamics temperature regulation:
     ig      =   71277
     temp0   = 300.00000, tempi   =   0.00000, gamma_ln=   1.00000

SHAKE:
     ntc     =       2, jfastw  =       0
     tol     =   0.00001

QMMM options:
             ifqnt = True       nquant =       36
              qmgb =        2  qmcharge =        0   adjust_q =        2
              spin =        1     qmcut =  20.0000    qmshake =        1
          qmmm_int =        1
     lnk_atomic_no =        1   lnk_dis =   1.0900 lnk_method =        1
          qm_theory =     RM1 verbosity =        0
            qmqmdx = Analytical
      tight_p_conv = False (converge density to 0.05xSqrt[SCFCRT])
           scfconv = 0.100E-07  itrmax =     1000
      printcharges = False      printdipole = False      peptide_corr = False
    qmmmrij_incore = True
  qmqm_erep_incore = True
       pseudo_diag = True pseudo_diag_criteria =   0.0500
      diag_routine =        0
          qm_ewald =        0 qm_pme = False

--------------------------------------------------------------------------------
   3.  ATOMIC COORDINATES AND VELOCITIES
--------------------------------------------------------------------------------

default_name
 begin time read from input coords =     0.000 ps

 Number of triangulated 3-point waters found:        0
QMMM: ADJUSTING CHARGES
QMMM: ----------------------------------------------------------------------
QMMM: adjust_q = 2
QMMM: Uniformly adjusting the charge of MM atoms to conserve total charge.
QMMM:                             qm_charge =    0
QMMM: QM atom RESP charge sum (inc MM link) =    0.002
QMMM: Adjusting each MM atom resp charge by =    0.000
QMMM:          Sum of MM + QM region is now =   -2.998
QMMM: ----------------------------------------------------------------------

QMMM: Link Atom Information
QMMM: ------------------------------------------------------------------------
QMMM: nlink =     0
QMMM: ------------------------------------------------------------------------

  QMMM: QM Region Cartesian Coordinates (*=link atom)
  QMMM: QM_NO.   MM_NO.  ATOM         X         Y         Z
  QMMM:     1     4647      O        9.3166    1.1526   20.9975
  QMMM:     2     4648      C        8.7307    0.4501   21.8317
  QMMM:     3     4649      C        9.3418   -0.0018   23.1401
  QMMM:     4     4650      C       10.8712    0.0085   23.0538
  QMMM:     5     4651      C       11.3513   -1.0227   22.0296
  QMMM:     6     4652      C       12.5453   -1.8347   22.5167
  QMMM:     7     4653      C       13.5808   -0.9795   23.2303
  QMMM:     8     4654      C       12.9799   -0.1228   24.3430
  QMMM:     9     4655      C       11.4670   -0.2674   24.4328
  QMMM:    10     4656      N        7.4077    0.0741   21.6079
  QMMM:    11     4657      C        6.7492    0.4229   20.4079
  QMMM:    12     4658      C        5.5304    1.0883   20.4535
  QMMM:    13     4659      C        4.9106    1.4319   19.2418
  QMMM:    14     4660      C        5.5496    1.0601   18.0366
  QMMM:    15     4661      N        6.7246    0.4095   17.9965
  QMMM:    16     4662      C        7.3234    0.0999   19.1622
  QMMM:    17     4663      H        8.9785   -1.0111   23.4414
  QMMM:    18     4664      H        8.9809    0.6828   23.9422
  QMMM:    19     4665      H       11.2063    1.0291   22.7306
  QMMM:    20     4666      H       10.5435   -1.7268   21.7341
  QMMM:    21     4667      H       11.5899   -0.5055   21.0821
  QMMM:    22     4668      H       13.0249   -2.3491   21.6580
  QMMM:    23     4669      H       12.2090   -2.6568   23.1836
  QMMM:    24     4670      H       14.3781   -1.6375   23.6418
  QMMM:    25     4671      H       14.1074   -0.3365   22.4954
  QMMM:    26     4672      H       13.4549   -0.3800   25.3108
  QMMM:    27     4673      H       13.2420    0.9445   24.1804
  QMMM:    28     4674      H       11.0556    0.4315   25.1897
  QMMM:    29     4675      H       11.1739   -1.2716   24.7990
  QMMM:    30     4676      H        6.8495   -0.3719   22.3386
  QMMM:    31     4677      H        5.0584    1.3404   21.4148
  QMMM:    32     4678      N        3.6792    2.0665   19.2301
  QMMM:    33     4679      H        5.1218    1.3096   17.0584
  QMMM:    34     4680      H        8.2847   -0.4267   19.0776
  QMMM:    35     4681      H        3.4332    2.6204   20.0377
  QMMM:    36     4682      H        3.3787    2.4672   18.3469

--------------------------------------------------------------------------------
  3.1 QM CALCULATION INFO
--------------------------------------------------------------------------------

QMMM: SINGLET STATE CALCULATION
QMMM: RHF CALCULATION, NO. OF DOUBLY OCCUPIED LEVELS = 46

--------------------------------------------------------------------------------
   4.  RESULTS
 NSTEP =        0   TIME(PS) =       0.000  TEMP(K) =     0.00  PRESS =     0.0
 Etot   =    -11981.3446  EKtot   =         0.0000  EPtot      =    -11981.3446
 BOND   =       141.2116  ANGLE   =       549.1055  DIHED      =      1204.7060
 1-4 NB =       953.4335  1-4 EEL =     12155.0931  VDWAALS    =     -2638.0067
 EELEC  =    -21573.7459  EGB     =     -2925.0214  RESTRAINT  =         0.0000
 RM1ESCF=       -71.2293
 CMAP   =       223.1088
 ------------------------------------------------------------------------------

      A V E R A G E S   O V E R   10000 S T E P S

 NSTEP =    10000   TIME(PS) =      20.000  TEMP(K) =   284.45  PRESS =     0.0
 Etot   =     -5250.9774  EKtot   =      3314.9093  EPtot      =     -8565.8867
 BOND   =       882.9032  ANGLE   =      2278.7958  DIHED      =      1652.1236
 1-4 NB =      1044.8621  1-4 EEL =     12020.4732  VDWAALS    =     -2381.8565
 EELEC  =    -21012.6551  EGB     =     -3234.5960  RESTRAINT  =         0.0000
 RM1ESCF=       -37.7626
 CMAP   =       221.8255
 ------------------------------------------------------------------------------

      R M S  F L U C T U A T I O N S

 NSTEP =    10000   TIME(PS) =      20.000  TEMP(K) =    44.28  PRESS =     0.0
 Etot   =      1062.0751  EKtot   =       516.0142  EPtot      =       548.0115
 BOND   =       118.8244  ANGLE   =       272.8602  DIHED      =        76.1205
 1-4 NB =        20.0210  1-4 EEL =        42.3963  VDWAALS    =        49.8183
 EELEC  =       141.2222  EGB     =       101.2197  RESTRAINT  =         0.0000
 RM1ESCF=         7.8018
 CMAP   =         8.0958
 ------------------------------------------------------------------------------
