-------------------------------------------------------
          Amber 18 SANDER                              2018
          -------------------------------------------------------

  [-O]verwriting output

File Assignments:

 Here is the input file:

MD with GB7
 &cntrl
  nstlim = 10000, dt = 0.002,
  ntwr = 5000, ntwx = 500,
  ntc = 2, ntf = 2,
  ntt = 3, temp0 = 300, gamma_ln = 1.0,
  ntb = 0, igb = 7, cut = 9999.0,
  ifqnt = 1,
 /

 &qmmm
  qmmask = ':305', qmcharge = 0,
  qm_theory = 'RM1', qmcut = 20.0,
 /

--------------------------------------------------------------------------------
   1.  RESOURCE   USE:
--------------------------------------------------------------------------------

 NATOM  =    4678 NTYPES =      22 NBONH =    2310 MBONA  =    2422
 NTHETH =    5219 MTHETA =    3292 NPHIH =   10767 MPHIA  =   10496
 NHPARM =       0 NPARM  =       0 NNB   =   25739 NRES   =     305
 NBONA  =    2422 NTHETA =    3292 NPHIA =   10496 NUMBND =      82
 NUMANG =     191 NPTRA  =     204 NATYP =      43 NPHB   =       0
 IFBOX  =       0 NMXRS  =      32 IFCAP =       0 NEXTRA =       0
 NCOPY  =       0

 Implicit solvent radii are ArgH and AspGluO modified Bondi2 radii (mbondi3)
 Replacing prmtop screening parameters with GBn (igb=7) values

LOADING THE QUANTUM ATOMS AS GROUPS
     Mask :305; matches    32 atoms

--------------------------------------------------------------------------------
   2.  CONTROL  DATA  FOR  THE  RUN
--------------------------------------------------------------------------------

default_name

General flags:
     imin    =       0, nmropt  =       0

Nature and format of input:
     ntx     =       1, irest   =       0, ntrx    =       1

Nature and format of output:
     ntxo    =       2, ntpr    =      50, ntrx    =       1, ntwr    =    5000
     iwrap   =       0, ntwx    =     500, ntwv    =       0, ntwe    =       0
     ioutfm  =       1, ntwprt  =       0, idecomp =       0, rbornstat=      0

Potential function:
     ntf     =       2, ntb     =       0, igb     =       7, nsnb    =      25
     ipol    =       0, gbsa    =       0, iesp    =       0
     dielc   =   1.00000, cut     =9999.00000, intdiel =   1.00000
     saltcon =   0.00000, offset  =   0.09000, gbalpha=    1.09511
     gbbeta  =   1.90793, gbgamma =   2.50798, surften =   0.00500
     rdt     =   0.00000, rgbmax  =  25.00000  extdiel =  78.50000
     alpb  =        0

Frozen or restrained atoms:
     ibelly  =       0, ntr     =       0

Molecular dynamics:
     nstlim  =     10000, nscm    =      1000, nrespa  =         1
     t       =   0.00000, dt      =   0.00200, vlimit  =  20.00000

Langevin dynamics temperature regulation:
     ig      =   71277
     temp0   = 300.00000, tempi   =   0.00000, gamma_ln=   1.00000

SHAKE:
     ntc     =       2, jfastw  =       0
     tol     =   0.00001

QMMM options:
             ifqnt = True       nquant =       32
              qmgb =        2  qmcharge =        0   adjust_q =        2
              spin =        1     qmcut =  20.0000    qmshake =        1
          qmmm_int =        1
     lnk_atomic_no =        1   lnk_dis =   1.0900 lnk_method =        1
          qm_theory =     RM1 verbosity =        0
            qmqmdx = Analytical
      tight_p_conv = False (converge density to 0.05xSqrt[SCFCRT])
           scfconv = 0.100E-07  itrmax =     1000
      printcharges = False      printdipole = False      peptide_corr = False
    qmmmrij_incore = True
  qmqm_erep_incore = True
       pseudo_diag = True pseudo_diag_criteria =   0.0500
      diag_routine =        0
          qm_ewald =        0 qm_pme = False

--------------------------------------------------------------------------------
   3.  ATOMIC COORDINATES AND VELOCITIES
--------------------------------------------------------------------------------

default_name
 begin time read from input coords =     0.000 ps

 Number of triangulated 3-point waters found:        0
QMMM: ADJUSTING CHARGES
QMMM: ----------------------------------------------------------------------
QMMM: adjust_q = 2
QMMM: Uniformly adjusting the charge of MM atoms to conserve total charge.
QMMM:                             qm_charge =    0
QMMM: QM atom RESP charge sum (inc MM link) =   -0.000
QMMM: Adjusting each MM atom resp charge by =   -0.000
QMMM:          Sum of MM + QM region is now =   -3.000
QMMM: ----------------------------------------------------------------------

QMMM: Link Atom Information
QMMM: ------------------------------------------------------------------------
QMMM: nlink =     0
QMMM: ------------------------------------------------------------------------

  QMMM: QM Region Cartesian Coordinates (*=link atom)
  QMMM: QM_NO.   MM_NO.  ATOM         X         Y         Z
  QMMM:     1     4647      O        8.8500    1.0023   20.7900
  QMMM:     2     4648      C        8.3938    0.0161   21.3925
  QMMM:     3     4649      N        9.1425   -0.7173   22.3076
  QMMM:     4     4650      C       10.4532   -0.2493   22.6215
  QMMM:     5     4651      C       10.5861    0.9069   23.3907
  QMMM:     6     4652      C       11.8585    1.3915   23.6631
  QMMM:     7     4653      C       12.9762    0.7252   23.1765
  QMMM:     8     4654      C       12.8308   -0.4425   22.4366
  QMMM:     9     4655      C       11.5685   -0.9426   22.1482
  QMMM:    10     4656      N        7.0630   -0.3895   21.2005
  QMMM:    11     4657      C        6.3368    0.1848   20.1350
  QMMM:    12     4658      C        5.1744    0.9632   20.3968
  QMMM:    13     4659      C        4.4330    1.4112   19.2896
  QMMM:    14     4660      C        4.9319    1.1521   17.9701
  QMMM:    15     4661      N        6.0506    0.4835   17.7456
  QMMM:    16     4662      C        6.7460   -0.0111   18.8272
  QMMM:    17     4663      H        8.8638   -1.6396   22.6387
  QMMM:    18     4664      H        9.7035    1.4344   23.7744
  QMMM:    19     4665      H       11.9710    2.3076   24.2533
  QMMM:    20     4666      H       13.9732    1.1366   23.3486
  QMMM:    21     4667      H       13.7142   -0.9656   22.0600
  QMMM:    22     4668      H       11.4520   -1.8535   21.5502
  QMMM:    23     4669      H        6.5628   -1.0028   21.8468
  QMMM:    24     4670      N        3.2327    2.0875   19.4258
  QMMM:    25     4671      H        4.3945    1.5387   17.0927
  QMMM:    26     4672      H        7.6536   -0.5773   18.5645
  QMMM:    27     4673      C        4.7251    1.3209   21.6965
  QMMM:    28     4674      H        5.3095    1.0269   22.5788
  QMMM:    29     4675      C        3.5736    2.0403   21.8306
  QMMM:    30     4676      H        3.1949    2.3599   22.8132
  QMMM:    31     4677      C        2.8339    2.3775   20.6549
  QMMM:    32     4678      H        1.8657    2.9109   20.7294

--------------------------------------------------------------------------------
  3.1 QM CALCULATION INFO
--------------------------------------------------------------------------------

QMMM: SINGLET STATE CALCULATION
QMMM: RHF CALCULATION, NO. OF DOUBLY OCCUPIED LEVELS = 49

--------------------------------------------------------------------------------
   4.  RESULTS
 NSTEP =        0   TIME(PS) =       0.000  TEMP(K) =     0.00  PRESS =     0.0
 Etot   =    -11924.0684  EKtot   =         0.0000  EPtot      =    -11924.0684
 BOND   =       142.7570  ANGLE   =       552.8234  DIHED      =      1195.8982
 1-4 NB =       952.7713  1-4 EEL =     12133.0075  VDWAALS    =     -2644.6996
 EELEC  =    -21571.4820  EGB     =     -2945.4831  RESTRAINT  =         0.0000
 RM1ESCF=        40.7793
 CMAP   =       219.5596
 ------------------------------------------------------------------------------

      A V E R A G E S   O V E R   10000 S T E P S

 NSTEP =    10000   TIME(PS) =      20.000  TEMP(K) =   285.74  PRESS =     0.0
 Etot   =     -5129.4880  EKtot   =      3328.5847  EPtot      =     -8458.0726
 BOND   =       885.1254  ANGLE   =      2282.0687  DIHED      =      1662.5268
 1-4 NB =      1043.1736  1-4 EEL =     12024.4202  VDWAALS    =     -2357.3620
 EELEC  =    -20889.2950  EGB     =     -3400.0735  RESTRAINT  =         0.0000
 RM1ESCF=        65.5157
 CMAP   =       225.8275
 ------------------------------------------------------------------------------

      R M S  F L U C T U A T I O N S

 NSTEP =    10000   TIME(PS) =      20.000  TEMP(K) =    44.85  PRESS =     0.0
 Etot   =      1080.9229  EKtot   =       522.4146  EPtot      =       560.5025
 BOND   =       120.6149  ANGLE   =       274.1791  DIHED      =        80.1960
 1-4 NB =        20.1573  1-4 EEL =        39.2229  VDWAALS    =        56.2077
 EELEC  =       149.3978  EGB     =       121.2897  RESTRAINT  =         0.0000
 RM1ESCF=         8.7203
 CMAP   =         9.6335
 ------------------------------------------------------------------------------
