-------------------------------------------------------
          Amber 18 SANDER                              2018
          -------------------------------------------------------

  [-O]verwriting output

File Assignments:

 Here is the input file:

MD with GB7
 &cntrl
  nstlim = 10000, dt = 0.002,
  ntwr = 5000, ntwx = 500,
  ntc = 2, ntf = 2,
  ntt = 3, temp0 = 300, gamma_ln = 1.0,
  ntb = 0, igb = 7, cut = 9999.0,
  ifqnt = 1,
 /

 &qmmm
  qmmask = ':305', qmcharge = 0,
  qm_theory = 'RM1', qmcut = 20.0,
 /

--------------------------------------------------------------------------------
   1.  RESOURCE   USE:
--------------------------------------------------------------------------------

 NATOM  =    4683 NTYPES =      25 NBONH =    2316 MBONA  =    2421
 NTHETH =    5238 MTHETA =    3291 NPHIH =   10795 MPHIA  =   10511
 NHPARM =       0 NPARM  =       0 NNB   =   25792 NRES   =     305
 NBONA  =    2421 NTHETA =    3291 NPHIA =   10511 NUMBND =      90
 NUMANG =     205 NPTRA  =     221 NATYP =      48 NPHB   =       0
 IFBOX  =       0 NMXRS  =      37 IFCAP =       0 NEXTRA =       0
 NCOPY  =       0

 Implicit solvent radii are ArgH and AspGluO modified Bondi2 radii (mbondi3)
 Replacing prmtop screening parameters with GBn (igb=7) values

LOADING THE QUANTUM ATOMS AS GROUPS
     Mask :305; matches    37 atoms

--------------------------------------------------------------------------------
   2.  CONTROL  DATA  FOR  THE  RUN
--------------------------------------------------------------------------------

default_name

General flags:
     imin    =       0, nmropt  =       0

Nature and format of input:
     ntx     =       1, irest   =       0, ntrx    =       1

Nature and format of output:
     ntxo    =       2, ntpr    =      50, ntrx    =       1, ntwr    =    5000
     iwrap   =       0, ntwx    =     500, ntwv    =       0, ntwe    =       0
     ioutfm  =       1, ntwprt  =       0, idecomp =       0, rbornstat=      0

Potential function:
     ntf     =       2, ntb     =       0, igb     =       7, nsnb    =      25
     ipol    =       0, gbsa    =       0, iesp    =       0
     dielc   =   1.00000, cut     =9999.00000, intdiel =   1.00000
     saltcon =   0.00000, offset  =   0.09000, gbalpha=    1.09511
     gbbeta  =   1.90793, gbgamma =   2.50798, surften =   0.00500
     rdt     =   0.00000, rgbmax  =  25.00000  extdiel =  78.50000
     alpb  =        0

Frozen or restrained atoms:
     ibelly  =       0, ntr     =       0

Molecular dynamics:
     nstlim  =     10000, nscm    =      1000, nrespa  =         1
     t       =   0.00000, dt      =   0.00200, vlimit  =  20.00000

Langevin dynamics temperature regulation:
     ig      =   71277
     temp0   = 300.00000, tempi   =   0.00000, gamma_ln=   1.00000

SHAKE:
     ntc     =       2, jfastw  =       0
     tol     =   0.00001

QMMM options:
             ifqnt = True       nquant =       37
              qmgb =        2  qmcharge =        0   adjust_q =        2
              spin =        1     qmcut =  20.0000    qmshake =        1
          qmmm_int =        1
     lnk_atomic_no =        1   lnk_dis =   1.0900 lnk_method =        1
          qm_theory =     RM1 verbosity =        0
            qmqmdx = Analytical
      tight_p_conv = False (converge density to 0.05xSqrt[SCFCRT])
           scfconv = 0.100E-07  itrmax =     1000
      printcharges = False      printdipole = False      peptide_corr = False
    qmmmrij_incore = True
  qmqm_erep_incore = True
       pseudo_diag = True pseudo_diag_criteria =   0.0500
      diag_routine =        0
          qm_ewald =        0 qm_pme = False

--------------------------------------------------------------------------------
   3.  ATOMIC COORDINATES AND VELOCITIES
--------------------------------------------------------------------------------

default_name
 begin time read from input coords =     0.000 ps

 Number of triangulated 3-point waters found:        0
QMMM: ADJUSTING CHARGES
QMMM: ----------------------------------------------------------------------
QMMM: adjust_q = 2
QMMM: Uniformly adjusting the charge of MM atoms to conserve total charge.
QMMM:                             qm_charge =    0
QMMM: QM atom RESP charge sum (inc MM link) =   -0.003
QMMM: Adjusting each MM atom resp charge by =   -0.000
QMMM:          Sum of MM + QM region is now =   -3.003
QMMM: ----------------------------------------------------------------------

QMMM: Link Atom Information
QMMM: ------------------------------------------------------------------------
QMMM: nlink =     0
QMMM: ------------------------------------------------------------------------

  QMMM: QM Region Cartesian Coordinates (*=link atom)
  QMMM: QM_NO.   MM_NO.  ATOM         X         Y         Z
  QMMM:     1     4647      O        9.3255    1.1652   20.9775
  QMMM:     2     4648      C        8.7304    0.5060   21.8321
  QMMM:     3     4649      C        9.3306    0.0523   23.1408
  QMMM:     4     4650      C       10.8607    0.0244   23.0508
  QMMM:     5     4651      C       11.3172   -1.0285   22.0364
  QMMM:     6     4652      C       12.5178   -1.8373   22.5154
  QMMM:     7     4653      C       13.5593   -0.9789   23.2135
  QMMM:     8     4654      C       12.9701   -0.1325   24.3386
  QMMM:     9     4655      C       11.4538   -0.2572   24.4309
  QMMM:    10     4656      N        7.3871    0.1654   21.6235
  QMMM:    11     4657      C        6.7529    0.4876   20.4098
  QMMM:    12     4658      C        5.5284    1.1762   20.3821
  QMMM:    13     4659      C        4.9442    1.4917   19.1232
  QMMM:    14     4660      C        5.5838    1.1124   17.9344
  QMMM:    15     4661      N        6.7454    0.4521   17.9698
  QMMM:    16     4662      C        7.3104    0.1433   19.1720
  QMMM:    17     4663      H        8.9427   -0.9466   23.4473
  QMMM:    18     4664      H        8.9873    0.7499   23.9368
  QMMM:    19     4665      H       11.2198    1.0339   22.7198
  QMMM:    20     4666      H       10.5002   -1.7338   21.7732
  QMMM:    21     4667      H       11.5373   -0.5296   21.0733
  QMMM:    22     4668      H       12.9865   -2.3552   21.6528
  QMMM:    23     4669      H       12.1885   -2.6557   23.1906
  QMMM:    24     4670      H       14.3665   -1.6327   23.6080
  QMMM:    25     4671      H       14.0714   -0.3320   22.4750
  QMMM:    26     4672      H       13.4431   -0.4085   25.3020
  QMMM:    27     4673      H       13.2462    0.9338   24.1918
  QMMM:    28     4674      H       11.0543    0.4497   25.1881
  QMMM:    29     4675      H       11.1493   -1.2574   24.8004
  QMMM:    30     4676      H        6.7956   -0.1709   22.3854
  QMMM:    31     4677      N        4.7120    1.6568   21.4190
  QMMM:    32     4678      N        3.7521    2.1594   19.4047
  QMMM:    33     4679      H        5.1834    1.3685   16.9495
  QMMM:    34     4680      H        8.2588   -0.4082   19.0987
  QMMM:    35     4681      C        3.6651    2.2523   20.8028
  QMMM:    36     4682      H        2.8185    2.7366   21.3292
  QMMM:    37     4683      H        3.2036    2.6663   18.7109

--------------------------------------------------------------------------------
  3.1 QM CALCULATION INFO
--------------------------------------------------------------------------------

QMMM: SINGLET STATE CALCULATION
QMMM: RHF CALCULATION, NO. OF DOUBLY OCCUPIED LEVELS = 50

--------------------------------------------------------------------------------
   4.  RESULTS
 NSTEP =        0   TIME(PS) =       0.000  TEMP(K) =     0.00  PRESS =     0.0
 Etot   =    -11966.0992  EKtot   =         0.0000  EPtot      =    -11966.0992
 BOND   =       141.1420  ANGLE   =       550.6126  DIHED      =      1204.5822
 1-4 NB =       953.4692  1-4 EEL =     12152.7677  VDWAALS    =     -2640.5978
 EELEC  =    -21575.2671  EGB     =     -2936.7281  RESTRAINT  =         0.0000
 RM1ESCF=       -38.2019
 CMAP   =       222.1218
 ------------------------------------------------------------------------------

      A V E R A G E S   O V E R   10000 S T E P S

 NSTEP =    10000   TIME(PS) =      20.000  TEMP(K) =   285.68  PRESS =     0.0
 Etot   =     -5195.6265  EKtot   =      3330.4292  EPtot      =     -8526.0558
 BOND   =       886.6344  ANGLE   =      2278.4493  DIHED      =      1664.8721
 1-4 NB =      1045.9911  1-4 EEL =     12026.5872  VDWAALS    =     -2377.8572
 EELEC  =    -20928.8349  EGB     =     -3340.6555  RESTRAINT  =         0.0000
 RM1ESCF=        -2.7552
 CMAP   =       221.5129
 ------------------------------------------------------------------------------

      R M S  F L U C T U A T I O N S

 NSTEP =    10000   TIME(PS) =      20.000  TEMP(K) =    44.45  PRESS =     0.0
 Etot   =      1067.1773  EKtot   =       518.1402  EPtot      =       550.9334
 BOND   =       119.0773  ANGLE   =       273.2971  DIHED      =        79.7017
 1-4 NB =        20.1171  1-4 EEL =        41.2090  VDWAALS    =        50.6312
 EELEC  =       148.1963  EGB     =       116.9404  RESTRAINT  =         0.0000
 RM1ESCF=         8.8020
 CMAP   =         7.3679
 ------------------------------------------------------------------------------
