-------------------------------------------------------
          Amber 18 SANDER                              2018
          -------------------------------------------------------

  [-O]verwriting output

File Assignments:

 Here is the input file:

MD with GB7
 &cntrl
  nstlim = 10000, dt = 0.002,
  ntwr = 5000, ntwx = 500,
  ntc = 2, ntf = 2,
  ntt = 3, temp0 = 300, gamma_ln = 1.0,
  ntb = 0, igb = 7, cut = 9999.0,
  ifqnt = 1,
 /

 &qmmm
  qmmask = ':305', qmcharge = 0,
  qm_theory = 'RM1', qmcut = 20.0,
 /

--------------------------------------------------------------------------------
   1.  RESOURCE   USE:
--------------------------------------------------------------------------------

 NATOM  =    4683 NTYPES =      24 NBONH =    2316 MBONA  =    2421
 NTHETH =    5238 MTHETA =    3291 NPHIH =   10795 MPHIA  =   10510
 NHPARM =       0 NPARM  =       0 NNB   =   25792 NRES   =     305
 NBONA  =    2421 NTHETA =    3291 NPHIA =   10510 NUMBND =      88
 NUMANG =     205 NPTRA  =     218 NATYP =      46 NPHB   =       0
 IFBOX  =       0 NMXRS  =      37 IFCAP =       0 NEXTRA =       0
 NCOPY  =       0

 Implicit solvent radii are ArgH and AspGluO modified Bondi2 radii (mbondi3)
 Replacing prmtop screening parameters with GBn (igb=7) values

LOADING THE QUANTUM ATOMS AS GROUPS
     Mask :305; matches    37 atoms

--------------------------------------------------------------------------------
   2.  CONTROL  DATA  FOR  THE  RUN
--------------------------------------------------------------------------------

default_name

General flags:
     imin    =       0, nmropt  =       0

Nature and format of input:
     ntx     =       1, irest   =       0, ntrx    =       1

Nature and format of output:
     ntxo    =       2, ntpr    =      50, ntrx    =       1, ntwr    =    5000
     iwrap   =       0, ntwx    =     500, ntwv    =       0, ntwe    =       0
     ioutfm  =       1, ntwprt  =       0, idecomp =       0, rbornstat=      0

Potential function:
     ntf     =       2, ntb     =       0, igb     =       7, nsnb    =      25
     ipol    =       0, gbsa    =       0, iesp    =       0
     dielc   =   1.00000, cut     =9999.00000, intdiel =   1.00000
     saltcon =   0.00000, offset  =   0.09000, gbalpha=    1.09511
     gbbeta  =   1.90793, gbgamma =   2.50798, surften =   0.00500
     rdt     =   0.00000, rgbmax  =  25.00000  extdiel =  78.50000
     alpb  =        0

Frozen or restrained atoms:
     ibelly  =       0, ntr     =       0

Molecular dynamics:
     nstlim  =     10000, nscm    =      1000, nrespa  =         1
     t       =   0.00000, dt      =   0.00200, vlimit  =  20.00000

Langevin dynamics temperature regulation:
     ig      =   71277
     temp0   = 300.00000, tempi   =   0.00000, gamma_ln=   1.00000

SHAKE:
     ntc     =       2, jfastw  =       0
     tol     =   0.00001

QMMM options:
             ifqnt = True       nquant =       37
              qmgb =        2  qmcharge =        0   adjust_q =        2
              spin =        1     qmcut =  20.0000    qmshake =        1
          qmmm_int =        1
     lnk_atomic_no =        1   lnk_dis =   1.0900 lnk_method =        1
          qm_theory =     RM1 verbosity =        0
            qmqmdx = Analytical
      tight_p_conv = False (converge density to 0.05xSqrt[SCFCRT])
           scfconv = 0.100E-07  itrmax =     1000
      printcharges = False      printdipole = False      peptide_corr = False
    qmmmrij_incore = True
  qmqm_erep_incore = True
       pseudo_diag = True pseudo_diag_criteria =   0.0500
      diag_routine =        0
          qm_ewald =        0 qm_pme = False

--------------------------------------------------------------------------------
   3.  ATOMIC COORDINATES AND VELOCITIES
--------------------------------------------------------------------------------

default_name
 begin time read from input coords =     0.000 ps

 Number of triangulated 3-point waters found:        0
QMMM: ADJUSTING CHARGES
QMMM: ----------------------------------------------------------------------
QMMM: adjust_q = 2
QMMM: Uniformly adjusting the charge of MM atoms to conserve total charge.
QMMM:                             qm_charge =    0
QMMM: QM atom RESP charge sum (inc MM link) =    0.003
QMMM: Adjusting each MM atom resp charge by =    0.000
QMMM:          Sum of MM + QM region is now =   -2.997
QMMM: ----------------------------------------------------------------------

QMMM: Link Atom Information
QMMM: ------------------------------------------------------------------------
QMMM: nlink =     0
QMMM: ------------------------------------------------------------------------

  QMMM: QM Region Cartesian Coordinates (*=link atom)
  QMMM: QM_NO.   MM_NO.  ATOM         X         Y         Z
  QMMM:     1     4647      O        9.3213    1.2605   20.9764
  QMMM:     2     4648      C        8.7796    0.5537   21.8154
  QMMM:     3     4649      C        9.3825    0.1516   23.1376
  QMMM:     4     4650      C       10.9054    0.0357   23.0173
  QMMM:     5     4651      C       11.2784   -1.0863   22.0474
  QMMM:     6     4652      C       12.4973   -1.8809   22.5053
  QMMM:     7     4653      C       13.5627   -1.0052   23.1484
  QMMM:     8     4654      C       13.0199   -0.1641   24.3024
  QMMM:     9     4655      C       11.5002   -0.2280   24.3997
  QMMM:    10     4656      N        7.4657    0.1103   21.5914
  QMMM:    11     4657      C        6.7922    0.4308   20.3984
  QMMM:    12     4658      N        5.5577    1.0951   20.5209
  QMMM:    13     4659      C        4.7725    1.3695   19.3682
  QMMM:    14     4660      C        5.3496    1.0566   18.0911
  QMMM:    15     4661      N        6.5266    0.4839   17.9745
  QMMM:    16     4662      C        7.2349    0.1500   19.1236
  QMMM:    17     4663      H        8.9612   -0.8016   23.5334
  QMMM:    18     4664      H        9.0990    0.9371   23.8767
  QMMM:    19     4665      H       11.3169    1.0057   22.6355
  QMMM:    20     4666      H       10.4357   -1.7931   21.8843
  QMMM:    21     4667      H       11.4465   -0.6571   21.0403
  QMMM:    22     4668      H       12.9376   -2.4214   21.6414
  QMMM:    23     4669      H       12.1918   -2.6824   23.2123
  QMMM:    24     4670      H       14.3969   -1.6464   23.5073
  QMMM:    25     4671      H       14.0230   -0.3522   22.3796
  QMMM:    26     4672      H       13.4822   -0.4857   25.2586
  QMMM:    27     4673      H       13.3433    0.8914   24.1798
  QMMM:    28     4674      H       11.1346    0.5143   25.1391
  QMMM:    29     4675      H       11.1595   -1.2066   24.7964
  QMMM:    30     4676      H        6.9546   -0.4483   22.2837
  QMMM:    31     4677      C        4.8253    1.5064   21.6335
  QMMM:    32     4678      N        3.5831    1.9185   19.7353
  QMMM:    33     4679      H        4.7955    1.3222   17.1815
  QMMM:    34     4680      H        8.1816   -0.3738   18.9297
  QMMM:    35     4681      C        3.6170    2.0011   21.1227
  QMMM:    36     4682      H        2.7759    2.4182   21.6889
  QMMM:    37     4683      H        5.1705    1.4206   22.6688

--------------------------------------------------------------------------------
  3.1 QM CALCULATION INFO
--------------------------------------------------------------------------------

QMMM: SINGLET STATE CALCULATION
QMMM: RHF CALCULATION, NO. OF DOUBLY OCCUPIED LEVELS = 50

--------------------------------------------------------------------------------
   4.  RESULTS
 NSTEP =        0   TIME(PS) =       0.000  TEMP(K) =     0.00  PRESS =     0.0
 Etot   =    -11970.2706  EKtot   =         0.0000  EPtot      =    -11970.2706
 BOND   =       143.4718  ANGLE   =       550.7967  DIHED      =      1197.9054
 1-4 NB =       948.6748  1-4 EEL =     12142.6940  VDWAALS    =     -2641.0868
 EELEC  =    -21562.2648  EGB     =     -2957.0635  RESTRAINT  =         0.0000
 RM1ESCF=       -11.4167
 CMAP   =       218.0184
 ------------------------------------------------------------------------------

      A V E R A G E S   O V E R   10000 S T E P S

 NSTEP =    10000   TIME(PS) =      20.000  TEMP(K) =   286.23  PRESS =     0.0
 Etot   =     -5163.2305  EKtot   =      3336.8288  EPtot      =     -8500.0593
 BOND   =       887.7089  ANGLE   =      2287.9158  DIHED      =      1658.9781
 1-4 NB =      1045.2009  1-4 EEL =     12024.3309  VDWAALS    =     -2369.8170
 EELEC  =    -20929.5461  EGB     =     -3349.2979  RESTRAINT  =         0.0000
 RM1ESCF=        22.9499
 CMAP   =       221.5173
 ------------------------------------------------------------------------------

      R M S  F L U C T U A T I O N S

 NSTEP =    10000   TIME(PS) =      20.000  TEMP(K) =    44.74  PRESS =     0.0
 Etot   =      1076.3892  EKtot   =       521.5398  EPtot      =       556.8559
 BOND   =       119.4837  ANGLE   =       276.4883  DIHED      =        78.5758
 1-4 NB =        20.2803  1-4 EEL =        39.5577  VDWAALS    =        53.5122
 EELEC  =       144.2160  EGB     =       112.0562  RESTRAINT  =         0.0000
 RM1ESCF=         8.7886
 CMAP   =         7.9173
 ------------------------------------------------------------------------------
