-------------------------------------------------------
          Amber 18 SANDER                              2018
          -------------------------------------------------------

  [-O]verwriting output

File Assignments:

 Here is the input file:

MD with GB7
 &cntrl
  nstlim = 10000, dt = 0.002,
  ntwr = 5000, ntwx = 500,
  ntc = 2, ntf = 2,
  ntt = 3, temp0 = 300, gamma_ln = 1.0,
  ntb = 0, igb = 7, cut = 9999.0,
  ifqnt = 1,
 /

 &qmmm
  qmmask = ':305', qmcharge = 0,
  qm_theory = 'RM1', qmcut = 20.0,
 /

--------------------------------------------------------------------------------
   1.  RESOURCE   USE:
--------------------------------------------------------------------------------

 NATOM  =    4684 NTYPES =      23 NBONH =    2316 MBONA  =    2422
 NTHETH =    5238 MTHETA =    3292 NPHIH =   10794 MPHIA  =   10512
 NHPARM =       0 NPARM  =       0 NNB   =   25796 NRES   =     305
 NBONA  =    2422 NTHETA =    3292 NPHIA =   10512 NUMBND =      84
 NUMANG =     196 NPTRA  =     218 NATYP =      44 NPHB   =       0
 IFBOX  =       0 NMXRS  =      38 IFCAP =       0 NEXTRA =       0
 NCOPY  =       0

 Implicit solvent radii are ArgH and AspGluO modified Bondi2 radii (mbondi3)
 Replacing prmtop screening parameters with GBn (igb=7) values

LOADING THE QUANTUM ATOMS AS GROUPS
     Mask :305; matches    38 atoms

--------------------------------------------------------------------------------
   2.  CONTROL  DATA  FOR  THE  RUN
--------------------------------------------------------------------------------

default_name

General flags:
     imin    =       0, nmropt  =       0

Nature and format of input:
     ntx     =       1, irest   =       0, ntrx    =       1

Nature and format of output:
     ntxo    =       2, ntpr    =      50, ntrx    =       1, ntwr    =    5000
     iwrap   =       0, ntwx    =     500, ntwv    =       0, ntwe    =       0
     ioutfm  =       1, ntwprt  =       0, idecomp =       0, rbornstat=      0

Potential function:
     ntf     =       2, ntb     =       0, igb     =       7, nsnb    =      25
     ipol    =       0, gbsa    =       0, iesp    =       0
     dielc   =   1.00000, cut     =9999.00000, intdiel =   1.00000
     saltcon =   0.00000, offset  =   0.09000, gbalpha=    1.09511
     gbbeta  =   1.90793, gbgamma =   2.50798, surften =   0.00500
     rdt     =   0.00000, rgbmax  =  25.00000  extdiel =  78.50000
     alpb  =        0

Frozen or restrained atoms:
     ibelly  =       0, ntr     =       0

Molecular dynamics:
     nstlim  =     10000, nscm    =      1000, nrespa  =         1
     t       =   0.00000, dt      =   0.00200, vlimit  =  20.00000

Langevin dynamics temperature regulation:
     ig      =   71277
     temp0   = 300.00000, tempi   =   0.00000, gamma_ln=   1.00000

SHAKE:
     ntc     =       2, jfastw  =       0
     tol     =   0.00001

QMMM options:
             ifqnt = True       nquant =       38
              qmgb =        2  qmcharge =        0   adjust_q =        2
              spin =        1     qmcut =  20.0000    qmshake =        1
          qmmm_int =        1
     lnk_atomic_no =        1   lnk_dis =   1.0900 lnk_method =        1
          qm_theory =     RM1 verbosity =        0
            qmqmdx = Analytical
      tight_p_conv = False (converge density to 0.05xSqrt[SCFCRT])
           scfconv = 0.100E-07  itrmax =     1000
      printcharges = False      printdipole = False      peptide_corr = False
    qmmmrij_incore = True
  qmqm_erep_incore = True
       pseudo_diag = True pseudo_diag_criteria =   0.0500
      diag_routine =        0
          qm_ewald =        0 qm_pme = False

--------------------------------------------------------------------------------
   3.  ATOMIC COORDINATES AND VELOCITIES
--------------------------------------------------------------------------------

default_name
 begin time read from input coords =     0.000 ps

 Number of triangulated 3-point waters found:        0
QMMM: ADJUSTING CHARGES
QMMM: ----------------------------------------------------------------------
QMMM: adjust_q = 2
QMMM: Uniformly adjusting the charge of MM atoms to conserve total charge.
QMMM:                             qm_charge =    0
QMMM: QM atom RESP charge sum (inc MM link) =   -0.000
QMMM: Adjusting each MM atom resp charge by =   -0.000
QMMM:          Sum of MM + QM region is now =   -3.000
QMMM: ----------------------------------------------------------------------

QMMM: Link Atom Information
QMMM: ------------------------------------------------------------------------
QMMM: nlink =     0
QMMM: ------------------------------------------------------------------------

  QMMM: QM Region Cartesian Coordinates (*=link atom)
  QMMM: QM_NO.   MM_NO.  ATOM         X         Y         Z
  QMMM:     1     4647      O        9.4175    1.2207   20.9595
  QMMM:     2     4648      C        8.8352    0.5858   21.8418
  QMMM:     3     4649      C        9.4383    0.1487   23.1494
  QMMM:     4     4650      C       10.9681    0.0421   23.0423
  QMMM:     5     4651      C       11.3656   -1.0481   22.0427
  QMMM:     6     4652      C       12.5569   -1.8683   22.5167
  QMMM:     7     4653      C       13.6238   -1.0199   23.1904
  QMMM:     8     4654      C       13.0661   -0.1739   24.3389
  QMMM:     9     4655      C       11.5448   -0.2479   24.4236
  QMMM:    10     4656      N        7.4899    0.2578   21.6720
  QMMM:    11     4657      C        6.7773    0.5847   20.4980
  QMMM:    12     4658      C        5.5238    1.2736   20.5939
  QMMM:    13     4659      C        4.7550    1.4206   19.4259
  QMMM:    14     4660      C        5.3007    0.9884   18.1845
  QMMM:    15     4661      N        6.5083    0.4408   18.0906
  QMMM:    16     4662      C        7.2270    0.2192   19.2350
  QMMM:    17     4663      H        9.0150   -0.8273   23.5002
  QMMM:    18     4664      H        9.1366    0.8657   23.9397
  QMMM:    19     4665      H       11.3630    1.0311   22.6891
  QMMM:    20     4666      H       10.5219   -1.7471   21.8238
  QMMM:    21     4667      H       11.5651   -0.5884   21.0566
  QMMM:    22     4668      H       13.0068   -2.4087   21.6503
  QMMM:    23     4669      H       12.2270   -2.6803   23.1964
  QMMM:    24     4670      H       14.4378   -1.6741   23.5636
  QMMM:    25     4671      H       14.1135   -0.3737   22.4420
  QMMM:    26     4672      H       13.5332   -0.4861   25.2911
  QMMM:    27     4673      H       13.3821    0.8846   24.2128
  QMMM:    28     4674      H       11.1646    0.4721   25.1804
  QMMM:    29     4675      H       11.2063   -1.2363   24.8004
  QMMM:    30     4676      H        6.9184   -0.0633   22.4705
  QMMM:    31     4677      N        5.0965    1.7614   21.8186
  QMMM:    32     4678      N        3.4739    1.9616   19.4900
  QMMM:    33     4679      H        4.7329    1.1171   17.2508
  QMMM:    34     4680      H        8.1923   -0.2996   19.0847
  QMMM:    35     4681      C        3.0616    2.3925   20.6654
  QMMM:    36     4682      C        3.8997    2.3219   21.8503
  QMMM:    37     4683      H        2.0289    2.7953   20.7181
  QMMM:    38     4684      H        3.5334    2.7080   22.8305

--------------------------------------------------------------------------------
  3.1 QM CALCULATION INFO
--------------------------------------------------------------------------------

QMMM: SINGLET STATE CALCULATION
QMMM: RHF CALCULATION, NO. OF DOUBLY OCCUPIED LEVELS = 52

--------------------------------------------------------------------------------
   4.  RESULTS
 NSTEP =        0   TIME(PS) =       0.000  TEMP(K) =     0.00  PRESS =     0.0
 Etot   =    -11953.5545  EKtot   =         0.0000  EPtot      =    -11953.5545
 BOND   =       143.1783  ANGLE   =       552.7189  DIHED      =      1201.9857
 1-4 NB =       950.4727  1-4 EEL =     12154.8375  VDWAALS    =     -2641.0700
 EELEC  =    -21571.6948  EGB     =     -2956.8212  RESTRAINT  =         0.0000
 RM1ESCF=        -7.3595
 CMAP   =       220.1981
 ------------------------------------------------------------------------------

      A V E R A G E S   O V E R   10000 S T E P S

 NSTEP =    10000   TIME(PS) =      20.000  TEMP(K) =   286.16  PRESS =     0.0
 Etot   =     -5167.6375  EKtot   =      3336.8616  EPtot      =     -8504.4991
 BOND   =       886.3440  ANGLE   =      2285.4540  DIHED      =      1660.8420
 1-4 NB =      1046.8453  1-4 EEL =     12032.5275  VDWAALS    =     -2374.7080
 EELEC  =    -20979.8406  EGB     =     -3304.5678  RESTRAINT  =         0.0000
 RM1ESCF=        19.3022
 CMAP   =       223.3024
 ------------------------------------------------------------------------------

      R M S  F L U C T U A T I O N S

 NSTEP =    10000   TIME(PS) =      20.000  TEMP(K) =    44.64  PRESS =     0.0
 Etot   =      1072.6567  EKtot   =       520.5890  EPtot      =       554.0669
 BOND   =       119.9560  ANGLE   =       276.2002  DIHED      =        79.3787
 1-4 NB =        20.6248  1-4 EEL =        41.9371  VDWAALS    =        51.1890
 EELEC  =       122.6560  EGB     =        90.5892  RESTRAINT  =         0.0000
 RM1ESCF=         6.8281
 CMAP   =         8.8562
 ------------------------------------------------------------------------------
