-------------------------------------------------------
          Amber 18 SANDER                              2018
          -------------------------------------------------------

  [-O]verwriting output

File Assignments:

 Here is the input file:

MD with GB7
 &cntrl
  nstlim = 10000, dt = 0.002,
  ntwr = 5000, ntwx = 500,
  ntc = 2, ntf = 2,
  ntt = 3, temp0 = 300, gamma_ln = 1.0,
  ntb = 0, igb = 7, cut = 9999.0,
  ifqnt = 1,
 /

 &qmmm
  qmmask = ':305', qmcharge = 0,
  qm_theory = 'RM1', qmcut = 20.0,
 /

--------------------------------------------------------------------------------
   1.  RESOURCE   USE:
--------------------------------------------------------------------------------

 NATOM  =    4685 NTYPES =      24 NBONH =    2317 MBONA  =    2422
 NTHETH =    5240 MTHETA =    3292 NPHIH =   10799 MPHIA  =   10512
 NHPARM =       0 NPARM  =       0 NNB   =   25803 NRES   =     305
 NBONA  =    2422 NTHETA =    3292 NPHIA =   10512 NUMBND =      85
 NUMANG =     197 NPTRA  =     218 NATYP =      45 NPHB   =       0
 IFBOX  =       0 NMXRS  =      39 IFCAP =       0 NEXTRA =       0
 NCOPY  =       0

 Implicit solvent radii are ArgH and AspGluO modified Bondi2 radii (mbondi3)
 Replacing prmtop screening parameters with GBn (igb=7) values

LOADING THE QUANTUM ATOMS AS GROUPS
     Mask :305; matches    39 atoms

--------------------------------------------------------------------------------
   2.  CONTROL  DATA  FOR  THE  RUN
--------------------------------------------------------------------------------

default_name

General flags:
     imin    =       0, nmropt  =       0

Nature and format of input:
     ntx     =       1, irest   =       0, ntrx    =       1

Nature and format of output:
     ntxo    =       2, ntpr    =      50, ntrx    =       1, ntwr    =    5000
     iwrap   =       0, ntwx    =     500, ntwv    =       0, ntwe    =       0
     ioutfm  =       1, ntwprt  =       0, idecomp =       0, rbornstat=      0

Potential function:
     ntf     =       2, ntb     =       0, igb     =       7, nsnb    =      25
     ipol    =       0, gbsa    =       0, iesp    =       0
     dielc   =   1.00000, cut     =9999.00000, intdiel =   1.00000
     saltcon =   0.00000, offset  =   0.09000, gbalpha=    1.09511
     gbbeta  =   1.90793, gbgamma =   2.50798, surften =   0.00500
     rdt     =   0.00000, rgbmax  =  25.00000  extdiel =  78.50000
     alpb  =        0

Frozen or restrained atoms:
     ibelly  =       0, ntr     =       0

Molecular dynamics:
     nstlim  =     10000, nscm    =      1000, nrespa  =         1
     t       =   0.00000, dt      =   0.00200, vlimit  =  20.00000

Langevin dynamics temperature regulation:
     ig      =   71277
     temp0   = 300.00000, tempi   =   0.00000, gamma_ln=   1.00000

SHAKE:
     ntc     =       2, jfastw  =       0
     tol     =   0.00001

QMMM options:
             ifqnt = True       nquant =       39
              qmgb =        2  qmcharge =        0   adjust_q =        2
              spin =        1     qmcut =  20.0000    qmshake =        1
          qmmm_int =        1
     lnk_atomic_no =        1   lnk_dis =   1.0900 lnk_method =        1
          qm_theory =     RM1 verbosity =        0
            qmqmdx = Analytical
      tight_p_conv = False (converge density to 0.05xSqrt[SCFCRT])
           scfconv = 0.100E-07  itrmax =     1000
      printcharges = False      printdipole = False      peptide_corr = False
    qmmmrij_incore = True
  qmqm_erep_incore = True
       pseudo_diag = True pseudo_diag_criteria =   0.0500
      diag_routine =        0
          qm_ewald =        0 qm_pme = False

--------------------------------------------------------------------------------
   3.  ATOMIC COORDINATES AND VELOCITIES
--------------------------------------------------------------------------------

default_name
 begin time read from input coords =     0.000 ps

 Number of triangulated 3-point waters found:        0
QMMM: ADJUSTING CHARGES
QMMM: ----------------------------------------------------------------------
QMMM: adjust_q = 2
QMMM: Uniformly adjusting the charge of MM atoms to conserve total charge.
QMMM:                             qm_charge =    0
QMMM: QM atom RESP charge sum (inc MM link) =    0.002
QMMM: Adjusting each MM atom resp charge by =    0.000
QMMM:          Sum of MM + QM region is now =   -2.998
QMMM: ----------------------------------------------------------------------

QMMM: Link Atom Information
QMMM: ------------------------------------------------------------------------
QMMM: nlink =     0
QMMM: ------------------------------------------------------------------------

  QMMM: QM Region Cartesian Coordinates (*=link atom)
  QMMM: QM_NO.   MM_NO.  ATOM         X         Y         Z
  QMMM:     1     4647      O        9.3461    1.2278   20.9910
  QMMM:     2     4648      C        8.8094    0.4749   21.8085
  QMMM:     3     4649      C        9.4256    0.0463   23.1208
  QMMM:     4     4650      C       10.9508    0.0075   23.0184
  QMMM:     5     4651      C       11.3913   -1.0721   22.0266
  QMMM:     6     4652      C       12.5853   -1.8803   22.5211
  QMMM:     7     4653      C       13.6335   -1.0161   23.2021
  QMMM:     8     4654      C       13.0565   -0.1496   24.3191
  QMMM:     9     4655      C       11.5392   -0.2518   24.4046
  QMMM:    10     4656      N        7.5101    0.0303   21.5798
  QMMM:    11     4657      C        6.7860    0.4189   20.4317
  QMMM:    12     4658      C        5.5379    1.0892   20.5936
  QMMM:    13     4659      C        4.7861    1.3562   19.4365
  QMMM:    14     4660      C        5.3402    1.0126   18.1586
  QMMM:    15     4661      N        6.5325    0.4536   18.0210
  QMMM:    16     4662      C        7.2489    0.1483   19.1565
  QMMM:    17     4663      H        9.0448   -0.9408   23.4731
  QMMM:    18     4664      H        9.0910    0.7709   23.8974
  QMMM:    19     4665      H       11.3194    1.0055   22.6640
  QMMM:    20     4666      H       10.5655   -1.7761   21.7815
  QMMM:    21     4667      H       11.6118   -0.6001   21.0511
  QMMM:    22     4668      H       13.0511   -2.4183   21.6686
  QMMM:    23     4669      H       12.2492   -2.6833   23.2115
  QMMM:    24     4670      H       14.4387   -1.6681   23.6026
  QMMM:    25     4671      H       14.1396   -0.3801   22.4484
  QMMM:    26     4672      H       13.5184   -0.4245   25.2894
  QMMM:    27     4673      H       13.3486    0.9101   24.1613
  QMMM:    28     4674      H       11.1450    0.4743   25.1452
  QMMM:    29     4675      H       11.2212   -1.2401   24.7943
  QMMM:    30     4676      H        7.0198   -0.5700   22.2451
  QMMM:    31     4677      C        5.0084    1.4983   21.8491
  QMMM:    32     4678      N        3.5291    1.9311   19.4832
  QMMM:    33     4679      H        4.7828    1.2302   17.2381
  QMMM:    34     4680      H        8.2154   -0.3443   18.9693
  QMMM:    35     4681      C        3.0647    2.2816   20.6741
  QMMM:    36     4682      C        3.7880    2.1062   21.8926
  QMMM:    37     4683      H        2.0511    2.7273   20.6763
  QMMM:    38     4684      H        3.3384    2.4461   22.8379
  QMMM:    39     4685      H        5.5741    1.3227   22.7764

--------------------------------------------------------------------------------
  3.1 QM CALCULATION INFO
--------------------------------------------------------------------------------

QMMM: SINGLET STATE CALCULATION
QMMM: RHF CALCULATION, NO. OF DOUBLY OCCUPIED LEVELS = 52

--------------------------------------------------------------------------------
   4.  RESULTS
 NSTEP =        0   TIME(PS) =       0.000  TEMP(K) =     0.00  PRESS =     0.0
 Etot   =    -11965.1327  EKtot   =         0.0000  EPtot      =    -11965.1327
 BOND   =       141.9301  ANGLE   =       550.4830  DIHED      =      1202.3745
 1-4 NB =       951.6602  1-4 EEL =     12150.0300  VDWAALS    =     -2641.9714
 EELEC  =    -21569.5700  EGB     =     -2951.9719  RESTRAINT  =         0.0000
 RM1ESCF=       -18.5914
 CMAP   =       220.4942
 ------------------------------------------------------------------------------

      A V E R A G E S   O V E R   10000 S T E P S

 NSTEP =    10000   TIME(PS) =      20.000  TEMP(K) =   284.69  PRESS =     0.0
 Etot   =     -5202.9686  EKtot   =      3320.3488  EPtot      =     -8523.3173
 BOND   =       880.0578  ANGLE   =      2279.2466  DIHED      =      1660.0491
 1-4 NB =      1042.6311  1-4 EEL =     12034.3378  VDWAALS    =     -2370.4373
 EELEC  =    -20901.5983  EGB     =     -3387.0437  RESTRAINT  =         0.0000
 RM1ESCF=        15.0537
 CMAP   =       224.3858
 ------------------------------------------------------------------------------

      R M S  F L U C T U A T I O N S

 NSTEP =    10000   TIME(PS) =      20.000  TEMP(K) =    44.58  PRESS =     0.0
 Etot   =      1076.1736  EKtot   =       519.9453  EPtot      =       558.2551
 BOND   =       119.3347  ANGLE   =       276.7379  DIHED      =        78.6697
 1-4 NB =        19.7779  1-4 EEL =        38.6262  VDWAALS    =        53.3724
 EELEC  =       141.3367  EGB     =       113.8367  RESTRAINT  =         0.0000
 RM1ESCF=         8.9554
 CMAP   =         8.6314
 ------------------------------------------------------------------------------
