-------------------------------------------------------
          Amber 18 SANDER                              2018
          -------------------------------------------------------

  [-O]verwriting output

File Assignments:

 Here is the input file:

MD with GB7
 &cntrl
  nstlim = 10000, dt = 0.002,
  ntwr = 5000, ntwx = 500,
  ntc = 2, ntf = 2,
  ntt = 3, temp0 = 300, gamma_ln = 1.0,
  ntb = 0, igb = 7, cut = 9999.0,
  ifqnt = 1,
 /

 &qmmm
  qmmask = ':305', qmcharge = 0,
  qm_theory = 'RM1', qmcut = 20.0,
 /

--------------------------------------------------------------------------------
   1.  RESOURCE   USE:
--------------------------------------------------------------------------------

 NATOM  =    4678 NTYPES =      25 NBONH =    2312 MBONA  =    2419
 NTHETH =    5223 MTHETA =    3287 NPHIH =   10769 MPHIA  =   10486
 NHPARM =       0 NPARM  =       0 NNB   =   25734 NRES   =     305
 NBONA  =    2419 NTHETA =    3287 NPHIA =   10486 NUMBND =      86
 NUMANG =     197 NPTRA  =     207 NATYP =      46 NPHB   =       0
 IFBOX  =       0 NMXRS  =      32 IFCAP =       0 NEXTRA =       0
 NCOPY  =       0

 Implicit solvent radii are ArgH and AspGluO modified Bondi2 radii (mbondi3)
 Replacing prmtop screening parameters with GBn (igb=7) values

LOADING THE QUANTUM ATOMS AS GROUPS
     Mask :305; matches    32 atoms

--------------------------------------------------------------------------------
   2.  CONTROL  DATA  FOR  THE  RUN
--------------------------------------------------------------------------------

default_name

General flags:
     imin    =       0, nmropt  =       0

Nature and format of input:
     ntx     =       1, irest   =       0, ntrx    =       1

Nature and format of output:
     ntxo    =       2, ntpr    =      50, ntrx    =       1, ntwr    =    5000
     iwrap   =       0, ntwx    =     500, ntwv    =       0, ntwe    =       0
     ioutfm  =       1, ntwprt  =       0, idecomp =       0, rbornstat=      0

Potential function:
     ntf     =       2, ntb     =       0, igb     =       7, nsnb    =      25
     ipol    =       0, gbsa    =       0, iesp    =       0
     dielc   =   1.00000, cut     =9999.00000, intdiel =   1.00000
     saltcon =   0.00000, offset  =   0.09000, gbalpha=    1.09511
     gbbeta  =   1.90793, gbgamma =   2.50798, surften =   0.00500
     rdt     =   0.00000, rgbmax  =  25.00000  extdiel =  78.50000
     alpb  =        0

Frozen or restrained atoms:
     ibelly  =       0, ntr     =       0

Molecular dynamics:
     nstlim  =     10000, nscm    =      1000, nrespa  =         1
     t       =   0.00000, dt      =   0.00200, vlimit  =  20.00000

Langevin dynamics temperature regulation:
     ig      =   71277
     temp0   = 300.00000, tempi   =   0.00000, gamma_ln=   1.00000

SHAKE:
     ntc     =       2, jfastw  =       0
     tol     =   0.00001

QMMM options:
             ifqnt = True       nquant =       32
              qmgb =        2  qmcharge =        0   adjust_q =        2
              spin =        1     qmcut =  20.0000    qmshake =        1
          qmmm_int =        1
     lnk_atomic_no =        1   lnk_dis =   1.0900 lnk_method =        1
          qm_theory =     RM1 verbosity =        0
            qmqmdx = Analytical
      tight_p_conv = False (converge density to 0.05xSqrt[SCFCRT])
           scfconv = 0.100E-07  itrmax =     1000
      printcharges = False      printdipole = False      peptide_corr = False
    qmmmrij_incore = True
  qmqm_erep_incore = True
       pseudo_diag = True pseudo_diag_criteria =   0.0500
      diag_routine =        0
          qm_ewald =        0 qm_pme = False

--------------------------------------------------------------------------------
   3.  ATOMIC COORDINATES AND VELOCITIES
--------------------------------------------------------------------------------

default_name
 begin time read from input coords =     0.000 ps

 Number of triangulated 3-point waters found:        0
QMMM: ADJUSTING CHARGES
QMMM: ----------------------------------------------------------------------
QMMM: adjust_q = 2
QMMM: Uniformly adjusting the charge of MM atoms to conserve total charge.
QMMM:                             qm_charge =    0
QMMM: QM atom RESP charge sum (inc MM link) =    0.002
QMMM: Adjusting each MM atom resp charge by =    0.000
QMMM:          Sum of MM + QM region is now =   -2.998
QMMM: ----------------------------------------------------------------------

QMMM: Link Atom Information
QMMM: ------------------------------------------------------------------------
QMMM: nlink =     0
QMMM: ------------------------------------------------------------------------

  QMMM: QM Region Cartesian Coordinates (*=link atom)
  QMMM: QM_NO.   MM_NO.  ATOM         X         Y         Z
  QMMM:     1     4647      O        8.7782    0.9809   20.7372
  QMMM:     2     4648      C        8.2661    0.0515   21.3816
  QMMM:     3     4649      N        8.9809   -0.6703   22.3348
  QMMM:     4     4650      C       10.3051   -0.2356   22.6447
  QMMM:     5     4651      C       10.4697    0.9135   23.4209
  QMMM:     6     4652      C       11.7530    1.3687   23.6915
  QMMM:     7     4653      C       12.8548    0.6828   23.1953
  QMMM:     8     4654      C       12.6794   -0.4729   22.4436
  QMMM:     9     4655      C       11.4054   -0.9446   22.1584
  QMMM:    10     4656      N        6.9221   -0.3248   21.1791
  QMMM:    11     4657      C        6.2606    0.2501   20.0628
  QMMM:    12     4658      C        5.1314    1.0463   20.2395
  QMMM:    13     4659      C        4.5222    1.5958   19.1020
  QMMM:    14     4660      C        5.0968    1.3023   17.8346
  QMMM:    15     4661      N        6.1782    0.5289   17.6727
  QMMM:    16     4662      C        6.7609    0.0054   18.7734
  QMMM:    17     4663      H        8.6394   -1.5367   22.7442
  QMMM:    18     4664      H        9.6002    1.4587   23.8067
  QMMM:    19     4665      H       11.8862    2.2801   24.2838
  QMMM:    20     4666      H       13.8617    1.0710   23.3717
  QMMM:    21     4667      H       13.5518   -1.0077   22.0540
  QMMM:    22     4668      H       11.2688   -1.8461   21.5491
  QMMM:    23     4669      H        6.3444   -0.6810   21.9436
  QMMM:    24     4670      H        4.7574    1.2511   21.2497
  QMMM:    25     4671      N        3.3442    2.3285   19.1675
  QMMM:    26     4672      H        4.6952    1.7422   16.9146
  QMMM:    27     4673      H        7.6545   -0.6098   18.5933
  QMMM:    28     4674      C        2.9202    2.9046   20.4489
  QMMM:    29     4675      H        3.1320    2.8891   18.3404
  QMMM:    30     4676      H        2.0660    3.5877   20.2880
  QMMM:    31     4677      H        2.5857    2.1111   21.1443
  QMMM:    32     4678      H        3.7015    3.4978   20.9610

--------------------------------------------------------------------------------
  3.1 QM CALCULATION INFO
--------------------------------------------------------------------------------

QMMM: SINGLET STATE CALCULATION
QMMM: RHF CALCULATION, NO. OF DOUBLY OCCUPIED LEVELS = 46

--------------------------------------------------------------------------------
   4.  RESULTS
 NSTEP =        0   TIME(PS) =       0.000  TEMP(K) =     0.00  PRESS =     0.0
 Etot   =    -11955.9012  EKtot   =         0.0000  EPtot      =    -11955.9012
 BOND   =       143.3373  ANGLE   =       553.1322  DIHED      =      1192.8210
 1-4 NB =       951.2191  1-4 EEL =     12126.8718  VDWAALS    =     -2644.1518
 EELEC  =    -21561.9489  EGB     =     -2928.1178  RESTRAINT  =         0.0000
 RM1ESCF=        -8.5401
 CMAP   =       219.4760
 ------------------------------------------------------------------------------

      A V E R A G E S   O V E R   10000 S T E P S

 NSTEP =    10000   TIME(PS) =      20.000  TEMP(K) =   285.68  PRESS =     0.0
 Etot   =     -5163.0360  EKtot   =      3327.2534  EPtot      =     -8490.2894
 BOND   =       887.4201  ANGLE   =      2285.5013  DIHED      =      1658.6910
 1-4 NB =      1043.9705  1-4 EEL =     12000.4234  VDWAALS    =     -2370.1487
 EELEC  =    -20899.5977  EGB     =     -3342.9204  RESTRAINT  =         0.0000
 RM1ESCF=        23.8010
 CMAP   =       222.5700
 ------------------------------------------------------------------------------

      R M S  F L U C T U A T I O N S

 NSTEP =    10000   TIME(PS) =      20.000  TEMP(K) =    44.80  PRESS =     0.0
 Etot   =      1078.4100  EKtot   =       521.7748  EPtot      =       558.7510
 BOND   =       121.1610  ANGLE   =       274.8009  DIHED      =        80.4402
 1-4 NB =        20.7104  1-4 EEL =        41.3762  VDWAALS    =        50.3906
 EELEC  =       146.7112  EGB     =       107.8232  RESTRAINT  =         0.0000
 RM1ESCF=         8.6622
 CMAP   =         7.6814
 ------------------------------------------------------------------------------
