-------------------------------------------------------
          Amber 18 SANDER                              2018
          -------------------------------------------------------

  [-O]verwriting output

File Assignments:

 Here is the input file:

MD with GB7
 &cntrl
  nstlim = 10000, dt = 0.002,
  ntwr = 5000, ntwx = 500,
  ntc = 2, ntf = 2,
  ntt = 3, temp0 = 300, gamma_ln = 1.0,
  ntb = 0, igb = 7, cut = 9999.0,
  ifqnt = 1,
 /

 &qmmm
  qmmask = ':305', qmcharge = 0,
  qm_theory = 'RM1', qmcut = 20.0,
 /

--------------------------------------------------------------------------------
   1.  RESOURCE   USE:
--------------------------------------------------------------------------------

 NATOM  =    4680 NTYPES =      24 NBONH =    2316 MBONA  =    2417
 NTHETH =    5238 MTHETA =    3284 NPHIH =   10795 MPHIA  =   10497
 NHPARM =       0 NPARM  =       0 NNB   =   25773 NRES   =     305
 NBONA  =    2417 NTHETA =    3284 NPHIA =   10497 NUMBND =      85
 NUMANG =     197 NPTRA  =     218 NATYP =      45 NPHB   =       0
 IFBOX  =       0 NMXRS  =      34 IFCAP =       0 NEXTRA =       0
 NCOPY  =       0

 Implicit solvent radii are ArgH and AspGluO modified Bondi2 radii (mbondi3)
 Replacing prmtop screening parameters with GBn (igb=7) values

LOADING THE QUANTUM ATOMS AS GROUPS
     Mask :305; matches    34 atoms

--------------------------------------------------------------------------------
   2.  CONTROL  DATA  FOR  THE  RUN
--------------------------------------------------------------------------------

default_name

General flags:
     imin    =       0, nmropt  =       0

Nature and format of input:
     ntx     =       1, irest   =       0, ntrx    =       1

Nature and format of output:
     ntxo    =       2, ntpr    =      50, ntrx    =       1, ntwr    =    5000
     iwrap   =       0, ntwx    =     500, ntwv    =       0, ntwe    =       0
     ioutfm  =       1, ntwprt  =       0, idecomp =       0, rbornstat=      0

Potential function:
     ntf     =       2, ntb     =       0, igb     =       7, nsnb    =      25
     ipol    =       0, gbsa    =       0, iesp    =       0
     dielc   =   1.00000, cut     =9999.00000, intdiel =   1.00000
     saltcon =   0.00000, offset  =   0.09000, gbalpha=    1.09511
     gbbeta  =   1.90793, gbgamma =   2.50798, surften =   0.00500
     rdt     =   0.00000, rgbmax  =  25.00000  extdiel =  78.50000
     alpb  =        0

Frozen or restrained atoms:
     ibelly  =       0, ntr     =       0

Molecular dynamics:
     nstlim  =     10000, nscm    =      1000, nrespa  =         1
     t       =   0.00000, dt      =   0.00200, vlimit  =  20.00000

Langevin dynamics temperature regulation:
     ig      =   71277
     temp0   = 300.00000, tempi   =   0.00000, gamma_ln=   1.00000

SHAKE:
     ntc     =       2, jfastw  =       0
     tol     =   0.00001

QMMM options:
             ifqnt = True       nquant =       34
              qmgb =        2  qmcharge =        0   adjust_q =        2
              spin =        1     qmcut =  20.0000    qmshake =        1
          qmmm_int =        1
     lnk_atomic_no =        1   lnk_dis =   1.0900 lnk_method =        1
          qm_theory =     RM1 verbosity =        0
            qmqmdx = Analytical
      tight_p_conv = False (converge density to 0.05xSqrt[SCFCRT])
           scfconv = 0.100E-07  itrmax =     1000
      printcharges = False      printdipole = False      peptide_corr = False
    qmmmrij_incore = True
  qmqm_erep_incore = True
       pseudo_diag = True pseudo_diag_criteria =   0.0500
      diag_routine =        0
          qm_ewald =        0 qm_pme = False

--------------------------------------------------------------------------------
   3.  ATOMIC COORDINATES AND VELOCITIES
--------------------------------------------------------------------------------

default_name
 begin time read from input coords =     0.000 ps

 Number of triangulated 3-point waters found:        0
QMMM: ADJUSTING CHARGES
QMMM: ----------------------------------------------------------------------
QMMM: adjust_q = 2
QMMM: Uniformly adjusting the charge of MM atoms to conserve total charge.
QMMM:                             qm_charge =    0
QMMM: QM atom RESP charge sum (inc MM link) =    0.004
QMMM: Adjusting each MM atom resp charge by =    0.000
QMMM:          Sum of MM + QM region is now =   -2.996
QMMM: ----------------------------------------------------------------------

QMMM: Link Atom Information
QMMM: ------------------------------------------------------------------------
QMMM: nlink =     0
QMMM: ------------------------------------------------------------------------

  QMMM: QM Region Cartesian Coordinates (*=link atom)
  QMMM: QM_NO.   MM_NO.  ATOM         X         Y         Z
  QMMM:     1     4647      O        9.2625    1.2113   20.9780
  QMMM:     2     4648      C        8.6993    0.5006   21.8201
  QMMM:     3     4649      C        9.3190    0.0940   23.1380
  QMMM:     4     4650      C       10.8452    0.0292   23.0258
  QMMM:     5     4651      C       11.2618   -1.0657   22.0400
  QMMM:     6     4652      C       12.4780   -1.8568   22.5105
  QMMM:     7     4653      C       13.5301   -0.9807   23.1712
  QMMM:     8     4654      C       12.9647   -0.1323   24.3077
  QMMM:     9     4655      C       11.4474   -0.2291   24.4066
  QMMM:    10     4656      N        7.3931    0.0736   21.5969
  QMMM:    11     4657      C        6.7061    0.3925   20.4039
  QMMM:    12     4658      C        5.4187    0.9378   20.4578
  QMMM:    13     4659      C        4.7794    1.2448   19.2660
  QMMM:    14     4660      C        5.4400    0.9953   18.0600
  QMMM:    15     4661      N        6.6760    0.4563   17.9869
  QMMM:    16     4662      C        7.2972    0.1555   19.1472
  QMMM:    17     4663      H        8.9210   -0.8792   23.5079
  QMMM:    18     4664      H        9.0054    0.8393   23.9039
  QMMM:    19     4665      H       11.2256    1.0183   22.6596
  QMMM:    20     4666      H       10.4336   -1.7784   21.8349
  QMMM:    21     4667      H       11.4480   -0.6102   21.0488
  QMMM:    22     4668      H       12.9320   -2.3899   21.6495
  QMMM:    23     4669      H       12.1658   -2.6642   23.2069
  QMMM:    24     4670      H       14.3548   -1.6233   23.5486
  QMMM:    25     4671      H       14.0118   -0.3345   22.4110
  QMMM:    26     4672      H       13.4334   -0.4278   25.2685
  QMMM:    27     4673      H       13.2617    0.9292   24.1678
  QMMM:    28     4674      H       11.0629    0.4990   25.1509
  QMMM:    29     4675      H       11.1290   -1.2161   24.7998
  QMMM:    30     4676      H        6.8511   -0.3890   22.3314
  QMMM:    31     4677      H        4.9184    1.1261   21.4183
  QMMM:    32     4678      H        3.7866    1.7026   19.2689
  QMMM:    33     4679      H        4.9800    1.2484   17.1003
  QMMM:    34     4680      H        8.2950   -0.2948   19.0465

--------------------------------------------------------------------------------
  3.1 QM CALCULATION INFO
--------------------------------------------------------------------------------

QMMM: SINGLET STATE CALCULATION
QMMM: RHF CALCULATION, NO. OF DOUBLY OCCUPIED LEVELS = 43

--------------------------------------------------------------------------------
   4.  RESULTS
 NSTEP =        0   TIME(PS) =       0.000  TEMP(K) =     0.00  PRESS =     0.0
 Etot   =    -11993.8224  EKtot   =         0.0000  EPtot      =    -11993.8224
 BOND   =       142.6918  ANGLE   =       550.6871  DIHED      =      1198.1702
 1-4 NB =       950.0601  1-4 EEL =     12144.6041  VDWAALS    =     -2636.6212
 EELEC  =    -21565.7247  EGB     =     -2940.3314  RESTRAINT  =         0.0000
 RM1ESCF=       -56.5643
 CMAP   =       219.2059
 ------------------------------------------------------------------------------

      A V E R A G E S   O V E R   10000 S T E P S

 NSTEP =    10000   TIME(PS) =      20.000  TEMP(K) =   286.08  PRESS =     0.0
 Etot   =     -5202.5327  EKtot   =      3332.5102  EPtot      =     -8535.0430
 BOND   =       887.6337  ANGLE   =      2287.0989  DIHED      =      1659.0188
 1-4 NB =      1045.2101  1-4 EEL =     12022.7712  VDWAALS    =     -2367.9062
 EELEC  =    -20950.3554  EGB     =     -3316.4145  RESTRAINT  =         0.0000
 RM1ESCF=       -23.8200
 CMAP   =       221.7205
 ------------------------------------------------------------------------------

      R M S  F L U C T U A T I O N S

 NSTEP =    10000   TIME(PS) =      20.000  TEMP(K) =    45.20  PRESS =     0.0
 Etot   =      1086.4568  EKtot   =       526.5403  EPtot      =       561.9599
 BOND   =       121.2129  ANGLE   =       277.8615  DIHED      =        80.0638
 1-4 NB =        19.9506  1-4 EEL =        38.7733  VDWAALS    =        55.0183
 EELEC  =       141.0019  EGB     =       108.8623  RESTRAINT  =         0.0000
 RM1ESCF=         7.3935
 CMAP   =         8.7529
 ------------------------------------------------------------------------------
