-------------------------------------------------------
          Amber 18 SANDER                              2018
          -------------------------------------------------------

  [-O]verwriting output

File Assignments:

 Here is the input file:

MD with GB7
 &cntrl
  nstlim = 10000, dt = 0.002,
  ntwr = 5000, ntwx = 500,
  ntc = 2, ntf = 2,
  ntt = 3, temp0 = 300, gamma_ln = 1.0,
  ntb = 0, igb = 7, cut = 9999.0,
  ifqnt = 1,
 /

 &qmmm
  qmmask = ':305', qmcharge = 0,
  qm_theory = 'RM1', qmcut = 20.0,
 /

--------------------------------------------------------------------------------
   1.  RESOURCE   USE:
--------------------------------------------------------------------------------

 NATOM  =    4676 NTYPES =      23 NBONH =    2309 MBONA  =    2421
 NTHETH =    5217 MTHETA =    3291 NPHIH =   10763 MPHIA  =   10495
 NHPARM =       0 NPARM  =       0 NNB   =   25728 NRES   =     305
 NBONA  =    2421 NTHETA =    3291 NPHIA =   10495 NUMBND =      88
 NUMANG =     204 NPTRA  =     207 NATYP =      46 NPHB   =       0
 IFBOX  =       0 NMXRS  =      30 IFCAP =       0 NEXTRA =       0
 NCOPY  =       0

 Implicit solvent radii are ArgH and AspGluO modified Bondi2 radii (mbondi3)
 Replacing prmtop screening parameters with GBn (igb=7) values

LOADING THE QUANTUM ATOMS AS GROUPS
     Mask :305; matches    30 atoms

--------------------------------------------------------------------------------
   2.  CONTROL  DATA  FOR  THE  RUN
--------------------------------------------------------------------------------

default_name

General flags:
     imin    =       0, nmropt  =       0

Nature and format of input:
     ntx     =       1, irest   =       0, ntrx    =       1

Nature and format of output:
     ntxo    =       2, ntpr    =      50, ntrx    =       1, ntwr    =    5000
     iwrap   =       0, ntwx    =     500, ntwv    =       0, ntwe    =       0
     ioutfm  =       1, ntwprt  =       0, idecomp =       0, rbornstat=      0

Potential function:
     ntf     =       2, ntb     =       0, igb     =       7, nsnb    =      25
     ipol    =       0, gbsa    =       0, iesp    =       0
     dielc   =   1.00000, cut     =9999.00000, intdiel =   1.00000
     saltcon =   0.00000, offset  =   0.09000, gbalpha=    1.09511
     gbbeta  =   1.90793, gbgamma =   2.50798, surften =   0.00500
     rdt     =   0.00000, rgbmax  =  25.00000  extdiel =  78.50000
     alpb  =        0

Frozen or restrained atoms:
     ibelly  =       0, ntr     =       0

Molecular dynamics:
     nstlim  =     10000, nscm    =      1000, nrespa  =         1
     t       =   0.00000, dt      =   0.00200, vlimit  =  20.00000

Langevin dynamics temperature regulation:
     ig      =   71277
     temp0   = 300.00000, tempi   =   0.00000, gamma_ln=   1.00000

SHAKE:
     ntc     =       2, jfastw  =       0
     tol     =   0.00001

QMMM options:
             ifqnt = True       nquant =       30
              qmgb =        2  qmcharge =        0   adjust_q =        2
              spin =        1     qmcut =  20.0000    qmshake =        1
          qmmm_int =        1
     lnk_atomic_no =        1   lnk_dis =   1.0900 lnk_method =        1
          qm_theory =     RM1 verbosity =        0
            qmqmdx = Analytical
      tight_p_conv = False (converge density to 0.05xSqrt[SCFCRT])
           scfconv = 0.100E-07  itrmax =     1000
      printcharges = False      printdipole = False      peptide_corr = False
    qmmmrij_incore = True
  qmqm_erep_incore = True
       pseudo_diag = True pseudo_diag_criteria =   0.0500
      diag_routine =        0
          qm_ewald =        0 qm_pme = False

--------------------------------------------------------------------------------
   3.  ATOMIC COORDINATES AND VELOCITIES
--------------------------------------------------------------------------------

default_name
 begin time read from input coords =     0.000 ps

 Number of triangulated 3-point waters found:        0
QMMM: ADJUSTING CHARGES
QMMM: ----------------------------------------------------------------------
QMMM: adjust_q = 2
QMMM: Uniformly adjusting the charge of MM atoms to conserve total charge.
QMMM:                             qm_charge =    0
QMMM: QM atom RESP charge sum (inc MM link) =   -0.001
QMMM: Adjusting each MM atom resp charge by =   -0.000
QMMM:          Sum of MM + QM region is now =   -3.001
QMMM: ----------------------------------------------------------------------

QMMM: Link Atom Information
QMMM: ------------------------------------------------------------------------
QMMM: nlink =     0
QMMM: ------------------------------------------------------------------------

  QMMM: QM Region Cartesian Coordinates (*=link atom)
  QMMM: QM_NO.   MM_NO.  ATOM         X         Y         Z
  QMMM:     1     4647      O        8.7054    1.0882   20.8671
  QMMM:     2     4648      C        8.3447    0.0122   21.3717
  QMMM:     3     4649      N        9.1181   -0.7131   22.2725
  QMMM:     4     4650      C       10.4151   -0.2120   22.5916
  QMMM:     5     4651      C       10.5387    0.9625   23.3338
  QMMM:     6     4652      C       11.8122    1.4389   23.6253
  QMMM:     7     4653      C       12.9339    0.7537   23.1733
  QMMM:     8     4654      C       12.7934   -0.4235   22.4457
  QMMM:     9     4655      C       11.5335   -0.9188   22.1463
  QMMM:    10     4656      N        7.0739   -0.5283   21.0700
  QMMM:    11     4657      C        6.3483    0.0439   20.0087
  QMMM:    12     4658      N        5.1879    0.7791   20.3110
  QMMM:    13     4659      C        4.4197    1.3434   19.2564
  QMMM:    14     4660      C        4.9163    1.2021   17.9133
  QMMM:    15     4661      N        6.0051    0.5151   17.6397
  QMMM:    16     4662      C        6.7109   -0.0675   18.6879
  QMMM:    17     4663      H        8.9010   -1.6733   22.5351
  QMMM:    18     4664      H        9.6541    1.5088   23.6826
  QMMM:    19     4665      H       11.9249    2.3654   24.1998
  QMMM:    20     4666      H       13.9341    1.1570   23.3656
  QMMM:    21     4667      H       13.6787   -0.9542   22.0838
  QMMM:    22     4668      H       11.4169   -1.8413   21.5666
  QMMM:    23     4669      H        6.6945   -1.3680   21.5132
  QMMM:    24     4670      N        3.2934    1.9153   19.7589
  QMMM:    25     4671      H        4.3793    1.6908   17.0925
  QMMM:    26     4672      H        7.6039   -0.6446   18.3855
  QMMM:    27     4673      C        4.5034    1.0136   21.5017
  QMMM:    28     4674      H        4.8456    0.6956   22.4915
  QMMM:    29     4675      C        3.3475    1.7170   21.1344
  QMMM:    30     4676      H        2.5532    2.0924   21.7921

--------------------------------------------------------------------------------
  3.1 QM CALCULATION INFO
--------------------------------------------------------------------------------

QMMM: SINGLET STATE CALCULATION
QMMM: RHF CALCULATION, NO. OF DOUBLY OCCUPIED LEVELS = 47

--------------------------------------------------------------------------------
   4.  RESULTS
 NSTEP =        0   TIME(PS) =       0.000  TEMP(K) =     0.00  PRESS =     0.0
 Etot   =    -11913.6249  EKtot   =         0.0000  EPtot      =    -11913.6249
 BOND   =       146.7173  ANGLE   =       557.5063  DIHED      =      1195.8146
 1-4 NB =       948.5152  1-4 EEL =     12123.9135  VDWAALS    =     -2645.1843
 EELEC  =    -21549.7382  EGB     =     -2960.9655  RESTRAINT  =         0.0000
 RM1ESCF=        51.7762
 CMAP   =       218.0199
 ------------------------------------------------------------------------------

      A V E R A G E S   O V E R   10000 S T E P S

 NSTEP =    10000   TIME(PS) =      20.000  TEMP(K) =   285.64  PRESS =     0.0
 Etot   =     -5133.3579  EKtot   =      3325.9437  EPtot      =     -8459.3016
 BOND   =       886.0000  ANGLE   =      2282.4396  DIHED      =      1664.5672
 1-4 NB =      1045.1212  1-4 EEL =     12012.5777  VDWAALS    =     -2360.7118
 EELEC  =    -20903.7286  EGB     =     -3378.1495  RESTRAINT  =         0.0000
 RM1ESCF=        70.7428
 CMAP   =       221.8399
 ------------------------------------------------------------------------------

      R M S  F L U C T U A T I O N S

 NSTEP =    10000   TIME(PS) =      20.000  TEMP(K) =    45.00  PRESS =     0.0
 Etot   =      1081.4086  EKtot   =       523.9198  EPtot      =       559.3860
 BOND   =       120.2916  ANGLE   =       276.5715  DIHED      =        79.3573
 1-4 NB =        20.5012  1-4 EEL =        42.0526  VDWAALS    =        58.6846
 EELEC  =       138.4266  EGB     =       103.9110  RESTRAINT  =         0.0000
 RM1ESCF=         6.5118
 CMAP   =         8.4377
 ------------------------------------------------------------------------------
