-------------------------------------------------------
          Amber 18 SANDER                              2018
          -------------------------------------------------------

  [-O]verwriting output

File Assignments:

 Here is the input file:

MD with GB7
 &cntrl
  nstlim = 10000, dt = 0.002,
  ntwr = 5000, ntwx = 500,
  ntc = 2, ntf = 2,
  ntt = 3, temp0 = 300, gamma_ln = 1.0,
  ntb = 0, igb = 7, cut = 9999.0,
  ifqnt = 1,
 /

 &qmmm
  qmmask = ':305', qmcharge = 0,
  qm_theory = 'RM1', qmcut = 20.0,
 /

--------------------------------------------------------------------------------
   1.  RESOURCE   USE:
--------------------------------------------------------------------------------

 NATOM  =    4681 NTYPES =      25 NBONH =    2314 MBONA  =    2420
 NTHETH =    5227 MTHETA =    3289 NPHIH =   10772 MPHIA  =   10489
 NHPARM =       0 NPARM  =       0 NNB   =   25750 NRES   =     305
 NBONA  =    2420 NTHETA =    3289 NPHIA =   10489 NUMBND =      85
 NUMANG =     196 NPTRA  =     206 NATYP =      46 NPHB   =       0
 IFBOX  =       0 NMXRS  =      35 IFCAP =       0 NEXTRA =       0
 NCOPY  =       0

 Implicit solvent radii are ArgH and AspGluO modified Bondi2 radii (mbondi3)
 Replacing prmtop screening parameters with GBn (igb=7) values

LOADING THE QUANTUM ATOMS AS GROUPS
     Mask :305; matches    35 atoms

--------------------------------------------------------------------------------
   2.  CONTROL  DATA  FOR  THE  RUN
--------------------------------------------------------------------------------

default_name

General flags:
     imin    =       0, nmropt  =       0

Nature and format of input:
     ntx     =       1, irest   =       0, ntrx    =       1

Nature and format of output:
     ntxo    =       2, ntpr    =      50, ntrx    =       1, ntwr    =    5000
     iwrap   =       0, ntwx    =     500, ntwv    =       0, ntwe    =       0
     ioutfm  =       1, ntwprt  =       0, idecomp =       0, rbornstat=      0

Potential function:
     ntf     =       2, ntb     =       0, igb     =       7, nsnb    =      25
     ipol    =       0, gbsa    =       0, iesp    =       0
     dielc   =   1.00000, cut     =9999.00000, intdiel =   1.00000
     saltcon =   0.00000, offset  =   0.09000, gbalpha=    1.09511
     gbbeta  =   1.90793, gbgamma =   2.50798, surften =   0.00500
     rdt     =   0.00000, rgbmax  =  25.00000  extdiel =  78.50000
     alpb  =        0

Frozen or restrained atoms:
     ibelly  =       0, ntr     =       0

Molecular dynamics:
     nstlim  =     10000, nscm    =      1000, nrespa  =         1
     t       =   0.00000, dt      =   0.00200, vlimit  =  20.00000

Langevin dynamics temperature regulation:
     ig      =   71277
     temp0   = 300.00000, tempi   =   0.00000, gamma_ln=   1.00000

SHAKE:
     ntc     =       2, jfastw  =       0
     tol     =   0.00001

QMMM options:
             ifqnt = True       nquant =       35
              qmgb =        2  qmcharge =        0   adjust_q =        2
              spin =        1     qmcut =  20.0000    qmshake =        1
          qmmm_int =        1
     lnk_atomic_no =        1   lnk_dis =   1.0900 lnk_method =        1
          qm_theory =     RM1 verbosity =        0
            qmqmdx = Analytical
      tight_p_conv = False (converge density to 0.05xSqrt[SCFCRT])
           scfconv = 0.100E-07  itrmax =     1000
      printcharges = False      printdipole = False      peptide_corr = False
    qmmmrij_incore = True
  qmqm_erep_incore = True
       pseudo_diag = True pseudo_diag_criteria =   0.0500
      diag_routine =        0
          qm_ewald =        0 qm_pme = False

--------------------------------------------------------------------------------
   3.  ATOMIC COORDINATES AND VELOCITIES
--------------------------------------------------------------------------------

default_name
 begin time read from input coords =     0.000 ps

 Number of triangulated 3-point waters found:        0
QMMM: ADJUSTING CHARGES
QMMM: ----------------------------------------------------------------------
QMMM: adjust_q = 2
QMMM: Uniformly adjusting the charge of MM atoms to conserve total charge.
QMMM:                             qm_charge =    0
QMMM: QM atom RESP charge sum (inc MM link) =   -0.000
QMMM: Adjusting each MM atom resp charge by =   -0.000
QMMM:          Sum of MM + QM region is now =   -3.000
QMMM: ----------------------------------------------------------------------

QMMM: Link Atom Information
QMMM: ------------------------------------------------------------------------
QMMM: nlink =     0
QMMM: ------------------------------------------------------------------------

  QMMM: QM Region Cartesian Coordinates (*=link atom)
  QMMM: QM_NO.   MM_NO.  ATOM         X         Y         Z
  QMMM:     1     4647      O        8.7923    0.8763   20.6976
  QMMM:     2     4648      C        8.3384   -0.1155   21.2924
  QMMM:     3     4649      N        9.0890   -0.8325   22.2230
  QMMM:     4     4650      C       10.3701   -0.3212   22.5854
  QMMM:     5     4651      C       10.4341    0.8038   23.4121
  QMMM:     6     4652      C       11.6775    1.3307   23.7389
  QMMM:     7     4653      C       12.8327    0.7341   23.2495
  QMMM:     8     4654      C       12.7583   -0.4034   22.4564
  QMMM:     9     4655      C       11.5270   -0.9427   22.1125
  QMMM:    10     4656      N        7.0297   -0.5735   21.0617
  QMMM:    11     4657      C        6.2776    0.1045   20.0630
  QMMM:    12     4658      C        5.1652    0.8622   20.4157
  QMMM:    13     4659      C        4.4395    1.5105   19.4045
  QMMM:    14     4660      C        4.8975    1.3489   18.0734
  QMMM:    15     4661      N        5.9724    0.6187   17.7310
  QMMM:    16     4662      C        6.6608    0.0053   18.7172
  QMMM:    17     4663      H        8.8005   -1.7370   22.5875
  QMMM:    18     4664      H        9.5188    1.2712   23.7998
  QMMM:    19     4665      H       11.7328    2.2252   24.3747
  QMMM:    20     4666      H       13.8071    1.1828   23.4624
  QMMM:    21     4667      H       13.6750   -0.8720   22.0816
  QMMM:    22     4668      H       11.4645   -1.8314   21.4747
  QMMM:    23     4669      H        6.5037   -1.0942   21.7684
  QMMM:    24     4670      H        4.8806    0.9478   21.4741
  QMMM:    25     4671      N        3.2195    2.1670   19.7058
  QMMM:    26     4672      H        4.3865    1.8555   17.2354
  QMMM:    27     4673      H        7.5426   -0.5717   18.4036
  QMMM:    28     4674      C        3.0807    2.6517   21.1045
  QMMM:    29     4675      C        2.7711    3.2018   18.7434
  QMMM:    30     4676      H        2.1299    3.1993   21.2219
  QMMM:    31     4677      H        3.0588    1.7977   21.8015
  QMMM:    32     4678      H        3.8858    3.3341   21.4279
  QMMM:    33     4679      H        1.6645    3.1939   18.7129
  QMMM:    34     4680      H        3.1311    3.0340   17.7127
  QMMM:    35     4681      H        3.0851    4.2279   19.0026

--------------------------------------------------------------------------------
  3.1 QM CALCULATION INFO
--------------------------------------------------------------------------------

QMMM: SINGLET STATE CALCULATION
QMMM: RHF CALCULATION, NO. OF DOUBLY OCCUPIED LEVELS = 49

--------------------------------------------------------------------------------
   4.  RESULTS
 NSTEP =        0   TIME(PS) =       0.000  TEMP(K) =     0.00  PRESS =     0.0
 Etot   =    -11935.3017  EKtot   =         0.0000  EPtot      =    -11935.3017
 BOND   =       142.1055  ANGLE   =       552.4763  DIHED      =      1196.7738
 1-4 NB =       954.1943  1-4 EEL =     12137.5333  VDWAALS    =     -2646.1856
 EELEC  =    -21571.0740  EGB     =     -2922.4532  RESTRAINT  =         0.0000
 RM1ESCF=        -0.1426
 CMAP   =       221.4706
 ------------------------------------------------------------------------------

      A V E R A G E S   O V E R   10000 S T E P S

 NSTEP =    10000   TIME(PS) =      20.000  TEMP(K) =   286.03  PRESS =     0.0
 Etot   =     -5161.8605  EKtot   =      3333.3236  EPtot      =     -8495.1841
 BOND   =       886.2508  ANGLE   =      2283.8102  DIHED      =      1659.2127
 1-4 NB =      1044.4853  1-4 EEL =     12002.9899  VDWAALS    =     -2372.2006
 EELEC  =    -20923.5964  EGB     =     -3329.4357  RESTRAINT  =         0.0000
 RM1ESCF=        28.7855
 CMAP   =       224.5142
 ------------------------------------------------------------------------------

      R M S  F L U C T U A T I O N S

 NSTEP =    10000   TIME(PS) =      20.000  TEMP(K) =    45.02  PRESS =     0.0
 Etot   =      1077.9346  EKtot   =       524.6098  EPtot      =       555.2961
 BOND   =       120.5467  ANGLE   =       275.3651  DIHED      =        79.4849
 1-4 NB =        20.6990  1-4 EEL =        41.5497  VDWAALS    =        53.9978
 EELEC  =       140.8478  EGB     =       106.3699  RESTRAINT  =         0.0000
 RM1ESCF=         8.0472
 CMAP   =         8.4472
 ------------------------------------------------------------------------------
