-------------------------------------------------------
          Amber 18 SANDER                              2018
          -------------------------------------------------------

  [-O]verwriting output

File Assignments:

 Here is the input file:

MD with GB7
 &cntrl
  nstlim = 10000, dt = 0.002,
  ntwr = 5000, ntwx = 500,
  ntc = 2, ntf = 2,
  ntt = 3, temp0 = 300, gamma_ln = 1.0,
  ntb = 0, igb = 7, cut = 9999.0,
  ifqnt = 1,
 /

 &qmmm
  qmmask = ':305', qmcharge = 0,
  qm_theory = 'RM1', qmcut = 20.0,
 /

--------------------------------------------------------------------------------
   1.  RESOURCE   USE:
--------------------------------------------------------------------------------

 NATOM  =    4684 NTYPES =      24 NBONH =    2316 MBONA  =    2422
 NTHETH =    5238 MTHETA =    3292 NPHIH =   10794 MPHIA  =   10512
 NHPARM =       0 NPARM  =       0 NNB   =   25797 NRES   =     305
 NBONA  =    2422 NTHETA =    3292 NPHIA =   10512 NUMBND =      85
 NUMANG =     198 NPTRA  =     218 NATYP =      45 NPHB   =       0
 IFBOX  =       0 NMXRS  =      38 IFCAP =       0 NEXTRA =       0
 NCOPY  =       0

 Implicit solvent radii are ArgH and AspGluO modified Bondi2 radii (mbondi3)
 Replacing prmtop screening parameters with GBn (igb=7) values

LOADING THE QUANTUM ATOMS AS GROUPS
     Mask :305; matches    38 atoms

--------------------------------------------------------------------------------
   2.  CONTROL  DATA  FOR  THE  RUN
--------------------------------------------------------------------------------

default_name

General flags:
     imin    =       0, nmropt  =       0

Nature and format of input:
     ntx     =       1, irest   =       0, ntrx    =       1

Nature and format of output:
     ntxo    =       2, ntpr    =      50, ntrx    =       1, ntwr    =    5000
     iwrap   =       0, ntwx    =     500, ntwv    =       0, ntwe    =       0
     ioutfm  =       1, ntwprt  =       0, idecomp =       0, rbornstat=      0

Potential function:
     ntf     =       2, ntb     =       0, igb     =       7, nsnb    =      25
     ipol    =       0, gbsa    =       0, iesp    =       0
     dielc   =   1.00000, cut     =9999.00000, intdiel =   1.00000
     saltcon =   0.00000, offset  =   0.09000, gbalpha=    1.09511
     gbbeta  =   1.90793, gbgamma =   2.50798, surften =   0.00500
     rdt     =   0.00000, rgbmax  =  25.00000  extdiel =  78.50000
     alpb  =        0

Frozen or restrained atoms:
     ibelly  =       0, ntr     =       0

Molecular dynamics:
     nstlim  =     10000, nscm    =      1000, nrespa  =         1
     t       =   0.00000, dt      =   0.00200, vlimit  =  20.00000

Langevin dynamics temperature regulation:
     ig      =   71277
     temp0   = 300.00000, tempi   =   0.00000, gamma_ln=   1.00000

SHAKE:
     ntc     =       2, jfastw  =       0
     tol     =   0.00001

QMMM options:
             ifqnt = True       nquant =       38
              qmgb =        2  qmcharge =        0   adjust_q =        2
              spin =        1     qmcut =  20.0000    qmshake =        1
          qmmm_int =        1
     lnk_atomic_no =        1   lnk_dis =   1.0900 lnk_method =        1
          qm_theory =     RM1 verbosity =        0
            qmqmdx = Analytical
      tight_p_conv = False (converge density to 0.05xSqrt[SCFCRT])
           scfconv = 0.100E-07  itrmax =     1000
      printcharges = False      printdipole = False      peptide_corr = False
    qmmmrij_incore = True
  qmqm_erep_incore = True
       pseudo_diag = True pseudo_diag_criteria =   0.0500
      diag_routine =        0
          qm_ewald =        0 qm_pme = False

--------------------------------------------------------------------------------
   3.  ATOMIC COORDINATES AND VELOCITIES
--------------------------------------------------------------------------------

default_name
 begin time read from input coords =     0.000 ps

 Number of triangulated 3-point waters found:        0
QMMM: ADJUSTING CHARGES
QMMM: ----------------------------------------------------------------------
QMMM: adjust_q = 2
QMMM: Uniformly adjusting the charge of MM atoms to conserve total charge.
QMMM:                             qm_charge =    0
QMMM: QM atom RESP charge sum (inc MM link) =    0.000
QMMM: Adjusting each MM atom resp charge by =    0.000
QMMM:          Sum of MM + QM region is now =   -3.000
QMMM: ----------------------------------------------------------------------

QMMM: Link Atom Information
QMMM: ------------------------------------------------------------------------
QMMM: nlink =     0
QMMM: ------------------------------------------------------------------------

  QMMM: QM Region Cartesian Coordinates (*=link atom)
  QMMM: QM_NO.   MM_NO.  ATOM         X         Y         Z
  QMMM:     1     4647      O        9.3715    1.1426   20.9775
  QMMM:     2     4648      C        8.8113    0.4325   21.8095
  QMMM:     3     4649      C        9.4163   -0.0198   23.1193
  QMMM:     4     4650      C       10.9435   -0.0024   23.0372
  QMMM:     5     4651      C       11.4335   -1.0383   22.0214
  QMMM:     6     4652      C       12.6194   -1.8502   22.5285
  QMMM:     7     4653      C       13.6490   -0.9932   23.2450
  QMMM:     8     4654      C       13.0403   -0.1270   24.3444
  QMMM:     9     4655      C       11.5266   -0.2704   24.4235
  QMMM:    10     4656      N        7.4836    0.0487   21.6056
  QMMM:    11     4657      C        6.7844    0.4249   20.4415
  QMMM:    12     4658      C        5.5460    1.1090   20.5676
  QMMM:    13     4659      C        4.7975    1.3607   19.4071
  QMMM:    14     4660      C        5.3614    0.9973   18.1388
  QMMM:    15     4661      N        6.5557    0.4361   18.0286
  QMMM:    16     4662      C        7.2582    0.1352   19.1709
  QMMM:    17     4663      H        9.0597   -1.0321   23.4192
  QMMM:    18     4664      H        9.0485    0.6636   23.9193
  QMMM:    19     4665      H       11.2777    1.0161   22.7105
  QMMM:    20     4666      H       10.6259   -1.7410   21.7170
  QMMM:    21     4667      H       11.6877   -0.5247   21.0764
  QMMM:    22     4668      H       13.1043   -2.3750   21.6801
  QMMM:    23     4669      H       12.2709   -2.6661   23.1977
  QMMM:    24     4670      H       14.4389   -1.6502   23.6673
  QMMM:    25     4671      H       14.1783   -0.3567   22.5089
  QMMM:    26     4672      H       13.5075   -0.3750   25.3179
  QMMM:    27     4673      H       13.3030    0.9397   24.1736
  QMMM:    28     4674      H       11.1090    0.4344   25.1730
  QMMM:    29     4675      H       11.2312   -1.2729   24.7935
  QMMM:    30     4676      H        6.9657   -0.5048   22.2957
  QMMM:    31     4677      C        4.9896    1.5713   21.8079
  QMMM:    32     4678      N        3.5373    1.9334   19.4597
  QMMM:    33     4679      H        4.8144    1.2038   17.2099
  QMMM:    34     4680      H        8.2217   -0.3686   18.9960
  QMMM:    35     4681      C        3.1064    2.3059   20.6645
  QMMM:    36     4682      N        3.8129    2.1750   21.8618
  QMMM:    37     4683      H        2.0900    2.7593   20.7399
  QMMM:    38     4684      H        5.5174    1.4326   22.7725

--------------------------------------------------------------------------------
  3.1 QM CALCULATION INFO
--------------------------------------------------------------------------------

QMMM: SINGLET STATE CALCULATION
QMMM: RHF CALCULATION, NO. OF DOUBLY OCCUPIED LEVELS = 52

--------------------------------------------------------------------------------
   4.  RESULTS
 NSTEP =        0   TIME(PS) =       0.000  TEMP(K) =     0.00  PRESS =     0.0
 Etot   =    -11940.8632  EKtot   =         0.0000  EPtot      =    -11940.8632
 BOND   =       140.8133  ANGLE   =       549.3361  DIHED      =      1206.4264
 1-4 NB =       954.6747  1-4 EEL =     12158.3347  VDWAALS    =     -2641.9313
 EELEC  =    -21576.4241  EGB     =     -2941.6683  RESTRAINT  =         0.0000
 RM1ESCF=       -14.2133
 CMAP   =       223.7887
 ------------------------------------------------------------------------------

      A V E R A G E S   O V E R   10000 S T E P S

 NSTEP =    10000   TIME(PS) =      20.000  TEMP(K) =   285.03  PRESS =     0.0
 Etot   =     -5191.4444  EKtot   =      3323.6774  EPtot      =     -8515.1218
 BOND   =       883.9288  ANGLE   =      2278.4638  DIHED      =      1656.5452
 1-4 NB =      1045.1321  1-4 EEL =     12041.1377  VDWAALS    =     -2370.7900
 EELEC  =    -20990.0711  EGB     =     -3305.7075  RESTRAINT  =         0.0000
 RM1ESCF=        19.5713
 CMAP   =       226.6678
 ------------------------------------------------------------------------------

      R M S  F L U C T U A T I O N S

 NSTEP =    10000   TIME(PS) =      20.000  TEMP(K) =    44.24  PRESS =     0.0
 Etot   =      1064.1254  EKtot   =       515.9064  EPtot      =       550.2362
 BOND   =       119.4379  ANGLE   =       274.1660  DIHED      =        77.7660
 1-4 NB =        20.0712  1-4 EEL =        39.2939  VDWAALS    =        51.3158
 EELEC  =       113.1131  EGB     =        83.7586  RESTRAINT  =         0.0000
 RM1ESCF=         7.7781
 CMAP   =         8.6977
 ------------------------------------------------------------------------------
