-------------------------------------------------------
          Amber 18 SANDER                              2018
          -------------------------------------------------------

  [-O]verwriting output

File Assignments:

 Here is the input file:

MD with GB7
 &cntrl
  nstlim = 10000, dt = 0.002,
  ntwr = 5000, ntwx = 500,
  ntc = 2, ntf = 2,
  ntt = 3, temp0 = 300, gamma_ln = 1.0,
  ntb = 0, igb = 7, cut = 9999.0,
  ifqnt = 1,
 /

 &qmmm
  qmmask = ':305', qmcharge = 0,
  qm_theory = 'RM1', qmcut = 20.0,
 /

--------------------------------------------------------------------------------
   1.  RESOURCE   USE:
--------------------------------------------------------------------------------

 NATOM  =    4681 NTYPES =      26 NBONH =    2313 MBONA  =    2421
 NTHETH =    5225 MTHETA =    3291 NPHIH =   10768 MPHIA  =   10493
 NHPARM =       0 NPARM  =       0 NNB   =   25750 NRES   =     305
 NBONA  =    2421 NTHETA =    3291 NPHIA =   10493 NUMBND =      86
 NUMANG =     198 NPTRA  =     206 NATYP =      47 NPHB   =       0
 IFBOX  =       0 NMXRS  =      35 IFCAP =       0 NEXTRA =       0
 NCOPY  =       0

 Implicit solvent radii are ArgH and AspGluO modified Bondi2 radii (mbondi3)
 Replacing prmtop screening parameters with GBn (igb=7) values

LOADING THE QUANTUM ATOMS AS GROUPS
     Mask :305; matches    35 atoms

--------------------------------------------------------------------------------
   2.  CONTROL  DATA  FOR  THE  RUN
--------------------------------------------------------------------------------

default_name

General flags:
     imin    =       0, nmropt  =       0

Nature and format of input:
     ntx     =       1, irest   =       0, ntrx    =       1

Nature and format of output:
     ntxo    =       2, ntpr    =      50, ntrx    =       1, ntwr    =    5000
     iwrap   =       0, ntwx    =     500, ntwv    =       0, ntwe    =       0
     ioutfm  =       1, ntwprt  =       0, idecomp =       0, rbornstat=      0

Potential function:
     ntf     =       2, ntb     =       0, igb     =       7, nsnb    =      25
     ipol    =       0, gbsa    =       0, iesp    =       0
     dielc   =   1.00000, cut     =9999.00000, intdiel =   1.00000
     saltcon =   0.00000, offset  =   0.09000, gbalpha=    1.09511
     gbbeta  =   1.90793, gbgamma =   2.50798, surften =   0.00500
     rdt     =   0.00000, rgbmax  =  25.00000  extdiel =  78.50000
     alpb  =        0

Frozen or restrained atoms:
     ibelly  =       0, ntr     =       0

Molecular dynamics:
     nstlim  =     10000, nscm    =      1000, nrespa  =         1
     t       =   0.00000, dt      =   0.00200, vlimit  =  20.00000

Langevin dynamics temperature regulation:
     ig      =   71277
     temp0   = 300.00000, tempi   =   0.00000, gamma_ln=   1.00000

SHAKE:
     ntc     =       2, jfastw  =       0
     tol     =   0.00001

QMMM options:
             ifqnt = True       nquant =       35
              qmgb =        2  qmcharge =        0   adjust_q =        2
              spin =        1     qmcut =  20.0000    qmshake =        1
          qmmm_int =        1
     lnk_atomic_no =        1   lnk_dis =   1.0900 lnk_method =        1
          qm_theory =     RM1 verbosity =        0
            qmqmdx = Analytical
      tight_p_conv = False (converge density to 0.05xSqrt[SCFCRT])
           scfconv = 0.100E-07  itrmax =     1000
      printcharges = False      printdipole = False      peptide_corr = False
    qmmmrij_incore = True
  qmqm_erep_incore = True
       pseudo_diag = True pseudo_diag_criteria =   0.0500
      diag_routine =        0
          qm_ewald =        0 qm_pme = False

--------------------------------------------------------------------------------
   3.  ATOMIC COORDINATES AND VELOCITIES
--------------------------------------------------------------------------------

default_name
 begin time read from input coords =     0.000 ps

 Number of triangulated 3-point waters found:        0
QMMM: ADJUSTING CHARGES
QMMM: ----------------------------------------------------------------------
QMMM: adjust_q = 2
QMMM: Uniformly adjusting the charge of MM atoms to conserve total charge.
QMMM:                             qm_charge =    0
QMMM: QM atom RESP charge sum (inc MM link) =    0.000
QMMM: Adjusting each MM atom resp charge by =    0.000
QMMM:          Sum of MM + QM region is now =   -3.000
QMMM: ----------------------------------------------------------------------

QMMM: Link Atom Information
QMMM: ------------------------------------------------------------------------
QMMM: nlink =     0
QMMM: ------------------------------------------------------------------------

  QMMM: QM Region Cartesian Coordinates (*=link atom)
  QMMM: QM_NO.   MM_NO.  ATOM         X         Y         Z
  QMMM:     1     4647      O        8.7041    1.1494   20.7340
  QMMM:     2     4648      C        8.2650    0.1358   21.3057
  QMMM:     3     4649      N        9.0621   -0.6482   22.1460
  QMMM:     4     4650      C       10.3670   -0.1645   22.4451
  QMMM:     5     4651      C       10.5197    1.0881   23.0490
  QMMM:     6     4652      C       11.7990    1.5379   23.3534
  QMMM:     7     4653      C       12.9047    0.7538   23.0494
  QMMM:     8     4654      C       12.7418   -0.4797   22.4313
  QMMM:     9     4655      C       11.4751   -0.9549   22.1260
  QMMM:    10     4656      N        6.9269   -0.2489   21.1605
  QMMM:    11     4657      C        6.1462    0.4070   20.1794
  QMMM:    12     4658      C        4.9829    1.0969   20.5190
  QMMM:    13     4659      C        4.2178    1.6936   19.5018
  QMMM:    14     4660      C        4.6699    1.5565   18.1664
  QMMM:    15     4661      N        5.7824    0.8975   17.8070
  QMMM:    16     4662      C        6.5084    0.3454   18.8130
  QMMM:    17     4663      H        8.8368   -1.6191   22.3650
  QMMM:    18     4664      H        9.6543    1.7197   23.2752
  QMMM:    19     4665      H       11.9279    2.5178   23.8277
  QMMM:    20     4666      H       13.9093    1.1222   23.2660
  QMMM:    21     4667      H       13.6161   -1.0811   22.1582
  QMMM:    22     4668      H       11.3449   -1.9206   21.6240
  QMMM:    23     4669      H        6.4408   -0.8445   21.8317
  QMMM:    24     4670      H        4.6693    1.1624   21.5705
  QMMM:    25     4671      N        2.9545    2.2626   19.8047
  QMMM:    26     4672      H        4.1230    2.0225   17.3258
  QMMM:    27     4673      F        7.6110   -0.2768   18.4341
  QMMM:    28     4674      C        2.7724    2.6925   21.2184
  QMMM:    29     4675      C        2.4934    3.3295   18.8812
  QMMM:    30     4676      H        1.7184    2.9774   21.3851
  QMMM:    31     4677      H        3.0126    1.8683   21.9182
  QMMM:    32     4678      H        3.4057    3.5528   21.5029
  QMMM:    33     4679      H        1.3899    3.3913   18.9217
  QMMM:    34     4680      H        2.7768    3.1429   17.8319
  QMMM:    35     4681      H        2.8898    4.3306   19.1220

--------------------------------------------------------------------------------
  3.1 QM CALCULATION INFO
--------------------------------------------------------------------------------

QMMM: SINGLET STATE CALCULATION
QMMM: RHF CALCULATION, NO. OF DOUBLY OCCUPIED LEVELS = 52

--------------------------------------------------------------------------------
   4.  RESULTS
 NSTEP =        0   TIME(PS) =       0.000  TEMP(K) =     0.00  PRESS =     0.0
 Etot   =    -11997.3077  EKtot   =         0.0000  EPtot      =    -11997.3077
 BOND   =       145.0483  ANGLE   =       554.4767  DIHED      =      1191.7593
 1-4 NB =       949.9866  1-4 EEL =     12126.9751  VDWAALS    =     -2647.5193
 EELEC  =    -21560.3890  EGB     =     -2934.1968  RESTRAINT  =         0.0000
 RM1ESCF=       -41.0478
 CMAP   =       217.5992
 ------------------------------------------------------------------------------

      A V E R A G E S   O V E R   10000 S T E P S

 NSTEP =    10000   TIME(PS) =      20.000  TEMP(K) =   285.48  PRESS =     0.0
 Etot   =     -5207.6910  EKtot   =      3327.2511  EPtot      =     -8534.9421
 BOND   =       884.7155  ANGLE   =      2288.1309  DIHED      =      1652.6190
 1-4 NB =      1043.9177  1-4 EEL =     12000.6674  VDWAALS    =     -2365.0476
 EELEC  =    -20854.0895  EGB     =     -3399.3820  RESTRAINT  =         0.0000
 RM1ESCF=        -9.1405
 CMAP   =       222.6669
 ------------------------------------------------------------------------------

      R M S  F L U C T U A T I O N S

 NSTEP =    10000   TIME(PS) =      20.000  TEMP(K) =    45.04  PRESS =     0.0
 Etot   =      1081.7028  EKtot   =       524.8821  EPtot      =       558.8030
 BOND   =       120.5588  ANGLE   =       277.2916  DIHED      =        77.7732
 1-4 NB =        20.3633  1-4 EEL =        41.9725  VDWAALS    =        57.1107
 EELEC  =       160.6309  EGB     =       123.9015  RESTRAINT  =         0.0000
 RM1ESCF=         8.1832
 CMAP   =         9.4205
 ------------------------------------------------------------------------------
