-------------------------------------------------------
          Amber 18 SANDER                              2018
          -------------------------------------------------------

  [-O]verwriting output

File Assignments:

 Here is the input file:

MD with GB7
 &cntrl
  nstlim = 10000, dt = 0.002,
  ntwr = 5000, ntwx = 500,
  ntc = 2, ntf = 2,
  ntt = 3, temp0 = 300, gamma_ln = 1.0,
  ntb = 0, igb = 7, cut = 9999.0,
  ifqnt = 1,
 /

 &qmmm
  qmmask = ':305', qmcharge = 0,
  qm_theory = 'RM1', qmcut = 20.0,
 /

--------------------------------------------------------------------------------
   1.  RESOURCE   USE:
--------------------------------------------------------------------------------

 NATOM  =    4684 NTYPES =      25 NBONH =    2315 MBONA  =    2423
 NTHETH =    5236 MTHETA =    3294 NPHIH =   10790 MPHIA  =   10516
 NHPARM =       0 NPARM  =       0 NNB   =   25797 NRES   =     305
 NBONA  =    2423 NTHETA =    3294 NPHIA =   10516 NUMBND =      86
 NUMANG =     200 NPTRA  =     218 NATYP =      46 NPHB   =       0
 IFBOX  =       0 NMXRS  =      38 IFCAP =       0 NEXTRA =       0
 NCOPY  =       0

 Implicit solvent radii are ArgH and AspGluO modified Bondi2 radii (mbondi3)
 Replacing prmtop screening parameters with GBn (igb=7) values

LOADING THE QUANTUM ATOMS AS GROUPS
     Mask :305; matches    38 atoms

--------------------------------------------------------------------------------
   2.  CONTROL  DATA  FOR  THE  RUN
--------------------------------------------------------------------------------

default_name

General flags:
     imin    =       0, nmropt  =       0

Nature and format of input:
     ntx     =       1, irest   =       0, ntrx    =       1

Nature and format of output:
     ntxo    =       2, ntpr    =      50, ntrx    =       1, ntwr    =    5000
     iwrap   =       0, ntwx    =     500, ntwv    =       0, ntwe    =       0
     ioutfm  =       1, ntwprt  =       0, idecomp =       0, rbornstat=      0

Potential function:
     ntf     =       2, ntb     =       0, igb     =       7, nsnb    =      25
     ipol    =       0, gbsa    =       0, iesp    =       0
     dielc   =   1.00000, cut     =9999.00000, intdiel =   1.00000
     saltcon =   0.00000, offset  =   0.09000, gbalpha=    1.09511
     gbbeta  =   1.90793, gbgamma =   2.50798, surften =   0.00500
     rdt     =   0.00000, rgbmax  =  25.00000  extdiel =  78.50000
     alpb  =        0

Frozen or restrained atoms:
     ibelly  =       0, ntr     =       0

Molecular dynamics:
     nstlim  =     10000, nscm    =      1000, nrespa  =         1
     t       =   0.00000, dt      =   0.00200, vlimit  =  20.00000

Langevin dynamics temperature regulation:
     ig      =   71277
     temp0   = 300.00000, tempi   =   0.00000, gamma_ln=   1.00000

SHAKE:
     ntc     =       2, jfastw  =       0
     tol     =   0.00001

QMMM options:
             ifqnt = True       nquant =       38
              qmgb =        2  qmcharge =        0   adjust_q =        2
              spin =        1     qmcut =  20.0000    qmshake =        1
          qmmm_int =        1
     lnk_atomic_no =        1   lnk_dis =   1.0900 lnk_method =        1
          qm_theory =     RM1 verbosity =        0
            qmqmdx = Analytical
      tight_p_conv = False (converge density to 0.05xSqrt[SCFCRT])
           scfconv = 0.100E-07  itrmax =     1000
      printcharges = False      printdipole = False      peptide_corr = False
    qmmmrij_incore = True
  qmqm_erep_incore = True
       pseudo_diag = True pseudo_diag_criteria =   0.0500
      diag_routine =        0
          qm_ewald =        0 qm_pme = False

--------------------------------------------------------------------------------
   3.  ATOMIC COORDINATES AND VELOCITIES
--------------------------------------------------------------------------------

default_name
 begin time read from input coords =     0.000 ps

 Number of triangulated 3-point waters found:        0
QMMM: ADJUSTING CHARGES
QMMM: ----------------------------------------------------------------------
QMMM: adjust_q = 2
QMMM: Uniformly adjusting the charge of MM atoms to conserve total charge.
QMMM:                             qm_charge =    0
QMMM: QM atom RESP charge sum (inc MM link) =   -0.002
QMMM: Adjusting each MM atom resp charge by =   -0.000
QMMM:          Sum of MM + QM region is now =   -3.002
QMMM: ----------------------------------------------------------------------

QMMM: Link Atom Information
QMMM: ------------------------------------------------------------------------
QMMM: nlink =     0
QMMM: ------------------------------------------------------------------------

  QMMM: QM Region Cartesian Coordinates (*=link atom)
  QMMM: QM_NO.   MM_NO.  ATOM         X         Y         Z
  QMMM:     1     4647      O        9.3715    1.2195   20.9582
  QMMM:     2     4648      C        8.8022    0.6071   21.8640
  QMMM:     3     4649      C        9.4288    0.1576   23.1637
  QMMM:     4     4650      C       10.9520    0.0858   23.0333
  QMMM:     5     4651      C       11.3554   -0.9895   22.0205
  QMMM:     6     4652      C       12.5154   -1.8553   22.4989
  QMMM:     7     4653      C       13.6084   -1.0427   23.1729
  QMMM:     8     4654      C       13.0776   -0.1384   24.2819
  QMMM:     9     4655      C       11.5615   -0.2025   24.4043
  QMMM:    10     4656      N        7.4264    0.3518   21.7503
  QMMM:    11     4657      C        6.6989    0.6807   20.5978
  QMMM:    12     4658      C        5.4420    1.3342   20.7130
  QMMM:    13     4659      C        4.6302    1.4640   19.5745
  QMMM:    14     4660      C        5.1493    1.0385   18.3065
  QMMM:    15     4661      N        6.3629    0.5349   18.1544
  QMMM:    16     4662      C        7.1171    0.3515   19.3061
  QMMM:    17     4663      H        9.0255   -0.8287   23.4972
  QMMM:    18     4664      H        9.1270    0.8800   23.9581
  QMMM:    19     4665      H       11.3330    1.0806   22.6821
  QMMM:    20     4666      H       10.5043   -1.6526   21.7535
  QMMM:    21     4667      H       11.6029   -0.5025   21.0591
  QMMM:    22     4668      H       12.9443   -2.4063   21.6374
  QMMM:    23     4669      H       12.1485   -2.6484   23.1847
  QMMM:    24     4670      H       14.3798   -1.7333   23.5750
  QMMM:    25     4671      H       14.1457   -0.4421   22.4127
  QMMM:    26     4672      H       13.5578   -0.4029   25.2453
  QMMM:    27     4673      H       13.3915    0.9104   24.0936
  QMMM:    28     4674      H       11.2001    0.5273   25.1579
  QMMM:    29     4675      H       11.2270   -1.1861   24.7925
  QMMM:    30     4676      H        6.9023   -0.1105   22.5042
  QMMM:    31     4677      C        4.9273    1.8823   21.9413
  QMMM:    32     4678      N        3.3456    1.9767   19.6450
  QMMM:    33     4679      H        4.5515    1.1412   17.3917
  QMMM:    34     4680      F        8.3032   -0.1795   19.0767
  QMMM:    35     4681      C        2.9559    2.4284   20.8370
  QMMM:    36     4682      N        3.7297    2.4370   21.9998
  QMMM:    37     4683      H        1.9211    2.8351   20.9307
  QMMM:    38     4684      H        5.5136    1.8578   22.8836

--------------------------------------------------------------------------------
  3.1 QM CALCULATION INFO
--------------------------------------------------------------------------------

QMMM: SINGLET STATE CALCULATION
QMMM: RHF CALCULATION, NO. OF DOUBLY OCCUPIED LEVELS = 55

--------------------------------------------------------------------------------
   4.  RESULTS
 NSTEP =        0   TIME(PS) =       0.000  TEMP(K) =     0.00  PRESS =     0.0
 Etot   =    -11985.0993  EKtot   =         0.0000  EPtot      =    -11985.0993
 BOND   =       140.5755  ANGLE   =       549.3929  DIHED      =      1205.1281
 1-4 NB =       954.5597  1-4 EEL =     12157.3338  VDWAALS    =     -2643.2101
 EELEC  =    -21572.6065  EGB     =     -2943.1075  RESTRAINT  =         0.0000
 RM1ESCF=       -56.4415
 CMAP   =       223.2762
 ------------------------------------------------------------------------------

      A V E R A G E S   O V E R   10000 S T E P S

 NSTEP =    10000   TIME(PS) =      20.000  TEMP(K) =   284.75  PRESS =     0.0
 Etot   =     -5238.6739  EKtot   =      3320.7091  EPtot      =     -8559.3830
 BOND   =       880.7566  ANGLE   =      2277.6092  DIHED      =      1659.5988
 1-4 NB =      1045.9631  1-4 EEL =     12034.9829  VDWAALS    =     -2360.5133
 EELEC  =    -20941.6195  EGB     =     -3358.5134  RESTRAINT  =         0.0000
 RM1ESCF=       -21.9833
 CMAP   =       224.3359
 ------------------------------------------------------------------------------

      R M S  F L U C T U A T I O N S

 NSTEP =    10000   TIME(PS) =      20.000  TEMP(K) =    44.18  PRESS =     0.0
 Etot   =      1062.3479  EKtot   =       515.2610  EPtot      =       549.0126
 BOND   =       118.3656  ANGLE   =       273.9338  DIHED      =        79.3174
 1-4 NB =        20.3347  1-4 EEL =        39.3830  VDWAALS    =        54.4464
 EELEC  =       123.6304  EGB     =        99.0973  RESTRAINT  =         0.0000
 RM1ESCF=         7.6818
 CMAP   =         8.5588
 ------------------------------------------------------------------------------
