-------------------------------------------------------
          Amber 18 SANDER                              2018
          -------------------------------------------------------

  [-O]verwriting output

File Assignments:

 Here is the input file:

MD with GB7
 &cntrl
  nstlim = 10000, dt = 0.002,
  ntwr = 5000, ntwx = 500,
  ntc = 2, ntf = 2,
  ntt = 3, temp0 = 300, gamma_ln = 1.0,
  ntb = 0, igb = 7, cut = 9999.0,
  ifqnt = 1,
 /

 &qmmm
  qmmask = ':305', qmcharge = 0,
  qm_theory = 'RM1', qmcut = 20.0,
 /

--------------------------------------------------------------------------------
   1.  RESOURCE   USE:
--------------------------------------------------------------------------------

 NATOM  =    4688 NTYPES =      27 NBONH =    2320 MBONA  =    2421
 NTHETH =    5246 MTHETA =    3291 NPHIH =   10800 MPHIA  =   10509
 NHPARM =       0 NPARM  =       0 NNB   =   25814 NRES   =     305
 NBONA  =    2421 NTHETA =    3291 NPHIA =   10509 NUMBND =      89
 NUMANG =     204 NPTRA  =     220 NATYP =      48 NPHB   =       0
 IFBOX  =       0 NMXRS  =      42 IFCAP =       0 NEXTRA =       0
 NCOPY  =       0

 Implicit solvent radii are ArgH and AspGluO modified Bondi2 radii (mbondi3)
 Replacing prmtop screening parameters with GBn (igb=7) values

LOADING THE QUANTUM ATOMS AS GROUPS
     Mask :305; matches    42 atoms

--------------------------------------------------------------------------------
   2.  CONTROL  DATA  FOR  THE  RUN
--------------------------------------------------------------------------------

default_name

General flags:
     imin    =       0, nmropt  =       0

Nature and format of input:
     ntx     =       1, irest   =       0, ntrx    =       1

Nature and format of output:
     ntxo    =       2, ntpr    =      50, ntrx    =       1, ntwr    =    5000
     iwrap   =       0, ntwx    =     500, ntwv    =       0, ntwe    =       0
     ioutfm  =       1, ntwprt  =       0, idecomp =       0, rbornstat=      0

Potential function:
     ntf     =       2, ntb     =       0, igb     =       7, nsnb    =      25
     ipol    =       0, gbsa    =       0, iesp    =       0
     dielc   =   1.00000, cut     =9999.00000, intdiel =   1.00000
     saltcon =   0.00000, offset  =   0.09000, gbalpha=    1.09511
     gbbeta  =   1.90793, gbgamma =   2.50798, surften =   0.00500
     rdt     =   0.00000, rgbmax  =  25.00000  extdiel =  78.50000
     alpb  =        0

Frozen or restrained atoms:
     ibelly  =       0, ntr     =       0

Molecular dynamics:
     nstlim  =     10000, nscm    =      1000, nrespa  =         1
     t       =   0.00000, dt      =   0.00200, vlimit  =  20.00000

Langevin dynamics temperature regulation:
     ig      =   71277
     temp0   = 300.00000, tempi   =   0.00000, gamma_ln=   1.00000

SHAKE:
     ntc     =       2, jfastw  =       0
     tol     =   0.00001

QMMM options:
             ifqnt = True       nquant =       42
              qmgb =        2  qmcharge =        0   adjust_q =        2
              spin =        1     qmcut =  20.0000    qmshake =        1
          qmmm_int =        1
     lnk_atomic_no =        1   lnk_dis =   1.0900 lnk_method =        1
          qm_theory =     RM1 verbosity =        0
            qmqmdx = Analytical
      tight_p_conv = False (converge density to 0.05xSqrt[SCFCRT])
           scfconv = 0.100E-07  itrmax =     1000
      printcharges = False      printdipole = False      peptide_corr = False
    qmmmrij_incore = True
  qmqm_erep_incore = True
       pseudo_diag = True pseudo_diag_criteria =   0.0500
      diag_routine =        0
          qm_ewald =        0 qm_pme = False

--------------------------------------------------------------------------------
   3.  ATOMIC COORDINATES AND VELOCITIES
--------------------------------------------------------------------------------

default_name
 begin time read from input coords =     0.000 ps

 Number of triangulated 3-point waters found:        0
QMMM: ADJUSTING CHARGES
QMMM: ----------------------------------------------------------------------
QMMM: adjust_q = 2
QMMM: Uniformly adjusting the charge of MM atoms to conserve total charge.
QMMM:                             qm_charge =    0
QMMM: QM atom RESP charge sum (inc MM link) =   -0.003
QMMM: Adjusting each MM atom resp charge by =   -0.000
QMMM:          Sum of MM + QM region is now =   -3.003
QMMM: ----------------------------------------------------------------------

QMMM: Link Atom Information
QMMM: ------------------------------------------------------------------------
QMMM: nlink =     0
QMMM: ------------------------------------------------------------------------

  QMMM: QM Region Cartesian Coordinates (*=link atom)
  QMMM: QM_NO.   MM_NO.  ATOM         X         Y         Z
  QMMM:     1     4647      O        9.1885    1.2236   20.9476
  QMMM:     2     4648      C        8.6863    0.4663   21.7844
  QMMM:     3     4649      C        9.3472    0.0524   23.0835
  QMMM:     4     4650      C       10.8714    0.0180   22.9526
  QMMM:     5     4651      C       11.3041   -1.1192   22.0228
  QMMM:     6     4652      C       12.4996   -1.9018   22.5498
  QMMM:     7     4653      C       13.5630   -1.0032   23.1571
  QMMM:     8     4654      C       13.0065   -0.0555   24.2165
  QMMM:     9     4655      C       11.4912   -0.1508   24.3413
  QMMM:    10     4656      N        7.3788    0.0149   21.6051
  QMMM:    11     4657      C        6.5847    0.4670   20.5280
  QMMM:    12     4658      C        5.3443    1.0588   20.7829
  QMMM:    13     4659      C        4.5584    1.4963   19.7126
  QMMM:    14     4660      C        5.0544    1.2941   18.4011
  QMMM:    15     4661      N        6.2439    0.7379   18.1161
  QMMM:    16     4662      C        6.9917    0.3406   19.1862
  QMMM:    17     4663      H        8.9737   -0.9311   23.4550
  QMMM:    18     4664      H        9.0272    0.7890   23.8585
  QMMM:    19     4665      H       11.2239    0.9955   22.5287
  QMMM:    20     4666      H       10.4736   -1.8315   21.8211
  QMMM:    21     4667      H       11.5171   -0.7005   21.0218
  QMMM:    22     4668      H       12.9490   -2.4889   21.7233
  QMMM:    23     4669      H       12.1708   -2.6617   23.2897
  QMMM:    24     4670      H       14.3658   -1.6348   23.5934
  QMMM:    25     4671      H       14.0712   -0.4314   22.3578
  QMMM:    26     4672      H       13.4848   -0.2580   25.1931
  QMMM:    27     4673      H       13.2980    0.9892   23.9783
  QMMM:    28     4674      H       11.1131    0.6249   25.0391
  QMMM:    29     4675      H       11.1838   -1.1125   24.7997
  QMMM:    30     4676      H        6.9113   -0.5804   22.2961
  QMMM:    31     4677      H        5.0272    1.1691   21.8308
  QMMM:    32     4678      N        3.2404    2.0052   19.8815
  QMMM:    33     4679      H        4.4865    1.6114   17.5137
  QMMM:    34     4680      F        8.1706   -0.1809   18.8676
  QMMM:    35     4681      C        2.8001    2.2335   21.2807
  QMMM:    36     4682      C        2.9302    3.1871   19.0414
  QMMM:    37     4683      H        1.7580    2.6027   21.2757
  QMMM:    38     4684      H        2.8061    1.2842   21.8394
  QMMM:    39     4685      H        3.3980    2.9712   21.8457
  QMMM:    40     4686      H        3.4081    3.1573   18.0497
  QMMM:    41     4687      H        1.8409    3.2276   18.8672
  QMMM:    42     4688      H        3.2260    4.1506   19.4888

--------------------------------------------------------------------------------
  3.1 QM CALCULATION INFO
--------------------------------------------------------------------------------

QMMM: SINGLET STATE CALCULATION
QMMM: RHF CALCULATION, NO. OF DOUBLY OCCUPIED LEVELS = 55

--------------------------------------------------------------------------------
   4.  RESULTS
 NSTEP =        0   TIME(PS) =       0.000  TEMP(K) =     0.00  PRESS =     0.0
 Etot   =    -12015.5067  EKtot   =         0.0000  EPtot      =    -12015.5067
 BOND   =       141.0150  ANGLE   =       550.6290  DIHED      =      1204.8633
 1-4 NB =       954.3801  1-4 EEL =     12155.5349  VDWAALS    =     -2642.0124
 EELEC  =    -21576.6680  EGB     =     -2929.2842  RESTRAINT  =         0.0000
 RM1ESCF=       -96.4171
 CMAP   =       222.4528
 ------------------------------------------------------------------------------

      A V E R A G E S   O V E R   10000 S T E P S

 NSTEP =    10000   TIME(PS) =      20.000  TEMP(K) =   283.64  PRESS =     0.0
 Etot   =     -5298.0064  EKtot   =      3309.6863  EPtot      =     -8607.6927
 BOND   =       880.9301  ANGLE   =      2273.1428  DIHED      =      1652.4057
 1-4 NB =      1044.6384  1-4 EEL =     12016.4638  VDWAALS    =     -2381.1515
 EELEC  =    -20980.0616  EGB     =     -3283.7852  RESTRAINT  =         0.0000
 RM1ESCF=       -52.4956
 CMAP   =       222.2204
 ------------------------------------------------------------------------------

      R M S  F L U C T U A T I O N S

 NSTEP =    10000   TIME(PS) =      20.000  TEMP(K) =    43.57  PRESS =     0.0
 Etot   =      1047.0585  EKtot   =       508.3673  EPtot      =       540.7237
 BOND   =       117.5507  ANGLE   =       268.8894  DIHED      =        76.2343
 1-4 NB =        19.7408  1-4 EEL =        42.4265  VDWAALS    =        51.9606
 EELEC  =       126.1878  EGB     =        92.6027  RESTRAINT  =         0.0000
 RM1ESCF=        11.6058
 CMAP   =         8.3300
 ------------------------------------------------------------------------------
