-------------------------------------------------------
          Amber 18 SANDER                              2018
          -------------------------------------------------------

  [-O]verwriting output

File Assignments:

 Here is the input file:

MD with GB7
 &cntrl
  nstlim = 10000, dt = 0.002,
  ntwr = 5000, ntwx = 500,
  ntc = 2, ntf = 2,
  ntt = 3, temp0 = 300, gamma_ln = 1.0,
  ntb = 0, igb = 7, cut = 9999.0,
  ifqnt = 1,
 /

 &qmmm
  qmmask = ':305', qmcharge = 0,
  qm_theory = 'RM1', qmcut = 20.0,
 /

--------------------------------------------------------------------------------
   1.  RESOURCE   USE:
--------------------------------------------------------------------------------

 NATOM  =    4684 NTYPES =      24 NBONH =    2315 MBONA  =    2423
 NTHETH =    5236 MTHETA =    3294 NPHIH =   10790 MPHIA  =   10516
 NHPARM =       0 NPARM  =       0 NNB   =   25796 NRES   =     305
 NBONA  =    2423 NTHETA =    3294 NPHIA =   10516 NUMBND =      85
 NUMANG =     198 NPTRA  =     218 NATYP =      45 NPHB   =       0
 IFBOX  =       0 NMXRS  =      38 IFCAP =       0 NEXTRA =       0
 NCOPY  =       0

 Implicit solvent radii are ArgH and AspGluO modified Bondi2 radii (mbondi3)
 Replacing prmtop screening parameters with GBn (igb=7) values

LOADING THE QUANTUM ATOMS AS GROUPS
     Mask :305; matches    38 atoms

--------------------------------------------------------------------------------
   2.  CONTROL  DATA  FOR  THE  RUN
--------------------------------------------------------------------------------

default_name

General flags:
     imin    =       0, nmropt  =       0

Nature and format of input:
     ntx     =       1, irest   =       0, ntrx    =       1

Nature and format of output:
     ntxo    =       2, ntpr    =      50, ntrx    =       1, ntwr    =    5000
     iwrap   =       0, ntwx    =     500, ntwv    =       0, ntwe    =       0
     ioutfm  =       1, ntwprt  =       0, idecomp =       0, rbornstat=      0

Potential function:
     ntf     =       2, ntb     =       0, igb     =       7, nsnb    =      25
     ipol    =       0, gbsa    =       0, iesp    =       0
     dielc   =   1.00000, cut     =9999.00000, intdiel =   1.00000
     saltcon =   0.00000, offset  =   0.09000, gbalpha=    1.09511
     gbbeta  =   1.90793, gbgamma =   2.50798, surften =   0.00500
     rdt     =   0.00000, rgbmax  =  25.00000  extdiel =  78.50000
     alpb  =        0

Frozen or restrained atoms:
     ibelly  =       0, ntr     =       0

Molecular dynamics:
     nstlim  =     10000, nscm    =      1000, nrespa  =         1
     t       =   0.00000, dt      =   0.00200, vlimit  =  20.00000

Langevin dynamics temperature regulation:
     ig      =   71277
     temp0   = 300.00000, tempi   =   0.00000, gamma_ln=   1.00000

SHAKE:
     ntc     =       2, jfastw  =       0
     tol     =   0.00001

QMMM options:
             ifqnt = True       nquant =       38
              qmgb =        2  qmcharge =        0   adjust_q =        2
              spin =        1     qmcut =  20.0000    qmshake =        1
          qmmm_int =        1
     lnk_atomic_no =        1   lnk_dis =   1.0900 lnk_method =        1
          qm_theory =     RM1 verbosity =        0
            qmqmdx = Analytical
      tight_p_conv = False (converge density to 0.05xSqrt[SCFCRT])
           scfconv = 0.100E-07  itrmax =     1000
      printcharges = False      printdipole = False      peptide_corr = False
    qmmmrij_incore = True
  qmqm_erep_incore = True
       pseudo_diag = True pseudo_diag_criteria =   0.0500
      diag_routine =        0
          qm_ewald =        0 qm_pme = False

--------------------------------------------------------------------------------
   3.  ATOMIC COORDINATES AND VELOCITIES
--------------------------------------------------------------------------------

default_name
 begin time read from input coords =     0.000 ps

 Number of triangulated 3-point waters found:        0
QMMM: ADJUSTING CHARGES
QMMM: ----------------------------------------------------------------------
QMMM: adjust_q = 2
QMMM: Uniformly adjusting the charge of MM atoms to conserve total charge.
QMMM:                             qm_charge =    0
QMMM: QM atom RESP charge sum (inc MM link) =    0.000
QMMM: Adjusting each MM atom resp charge by =    0.000
QMMM:          Sum of MM + QM region is now =   -3.000
QMMM: ----------------------------------------------------------------------

QMMM: Link Atom Information
QMMM: ------------------------------------------------------------------------
QMMM: nlink =     0
QMMM: ------------------------------------------------------------------------

  QMMM: QM Region Cartesian Coordinates (*=link atom)
  QMMM: QM_NO.   MM_NO.  ATOM         X         Y         Z
  QMMM:     1     4647      O        9.4203    1.2558   20.9603
  QMMM:     2     4648      C        8.8312    0.7100   21.8914
  QMMM:     3     4649      C        9.4526    0.2759   23.1979
  QMMM:     4     4650      C       10.9683    0.1189   23.0514
  QMMM:     5     4651      C       11.3038   -0.9809   22.0416
  QMMM:     6     4652      C       12.4763   -1.8528   22.4785
  QMMM:     7     4653      C       13.5889   -1.0519   23.1348
  QMMM:     8     4654      C       13.0928   -0.1796   24.2852
  QMMM:     9     4655      C       11.5756   -0.2051   24.4156
  QMMM:    10     4656      N        7.4502    0.4870   21.7889
  QMMM:    11     4657      C        6.7292    0.7681   20.6214
  QMMM:    12     4658      C        5.4562    1.4056   20.6960
  QMMM:    13     4659      C        4.6538    1.4796   19.5412
  QMMM:    14     4660      C        5.1901    1.0190   18.2982
  QMMM:    15     4661      N        6.4139    0.5246   18.1828
  QMMM:    16     4662      C        7.1568    0.3928   19.3470
  QMMM:    17     4663      H        9.0023   -0.6743   23.5690
  QMMM:    18     4664      H        9.2004    1.0377   23.9709
  QMMM:    19     4665      H       11.3988    1.0904   22.6924
  QMMM:    20     4666      H       10.4313   -1.6376   21.8363
  QMMM:    21     4667      H       11.5068   -0.5194   21.0571
  QMMM:    22     4668      H       12.8822   -2.3930   21.5986
  QMMM:    23     4669      H       12.1282   -2.6540   23.1647
  QMMM:    24     4670      H       14.3760   -1.7482   23.4952
  QMMM:    25     4671      H       14.0978   -0.4293   22.3726
  QMMM:    26     4672      H       13.5710   -0.4971   25.2338
  QMMM:    27     4673      H       13.4338    0.8667   24.1354
  QMMM:    28     4674      H       11.2349    0.5202   25.1821
  QMMM:    29     4675      H       11.2166   -1.1860   24.7891
  QMMM:    30     4676      H        6.8972    0.2482   22.6192
  QMMM:    31     4677      N        5.0197    1.9322   21.9084
  QMMM:    32     4678      N        3.3610    1.9798   19.5989
  QMMM:    33     4679      H        4.6030    1.0760   17.3726
  QMMM:    34     4680      F        8.3487   -0.1384   19.1470
  QMMM:    35     4681      C        2.9523    2.4510   20.7611
  QMMM:    36     4682      C        3.8089    2.4592   21.9316
  QMMM:    37     4683      H        1.9107    2.8318   20.8180
  QMMM:    38     4684      H        3.4563    2.8839   22.8965

--------------------------------------------------------------------------------
  3.1 QM CALCULATION INFO
--------------------------------------------------------------------------------

QMMM: SINGLET STATE CALCULATION
QMMM: RHF CALCULATION, NO. OF DOUBLY OCCUPIED LEVELS = 55

--------------------------------------------------------------------------------
   4.  RESULTS
 NSTEP =        0   TIME(PS) =       0.000  TEMP(K) =     0.00  PRESS =     0.0
 Etot   =    -11970.4923  EKtot   =         0.0000  EPtot      =    -11970.4923
 BOND   =       139.5164  ANGLE   =       548.5606  DIHED      =      1209.2938
 1-4 NB =       957.0765  1-4 EEL =     12164.7601  VDWAALS    =     -2641.3283
 EELEC  =    -21581.2937  EGB     =     -2943.2714  RESTRAINT  =         0.0000
 RM1ESCF=       -49.4621
 CMAP   =       225.6558
 ------------------------------------------------------------------------------

      A V E R A G E S   O V E R   10000 S T E P S

 NSTEP =    10000   TIME(PS) =      20.000  TEMP(K) =   285.29  PRESS =     0.0
 Etot   =     -5232.8593  EKtot   =      3327.0285  EPtot      =     -8559.8878
 BOND   =       882.2667  ANGLE   =      2277.6009  DIHED      =      1658.5002
 1-4 NB =      1046.7826  1-4 EEL =     12028.8608  VDWAALS    =     -2371.9724
 EELEC  =    -20963.8819  EGB     =     -3322.5530  RESTRAINT  =         0.0000
 RM1ESCF=       -19.7887
 CMAP   =       224.2970
 ------------------------------------------------------------------------------

      R M S  F L U C T U A T I O N S

 NSTEP =    10000   TIME(PS) =      20.000  TEMP(K) =    44.19  PRESS =     0.0
 Etot   =      1059.1672  EKtot   =       515.2843  EPtot      =       545.8898
 BOND   =       118.6171  ANGLE   =       273.2534  DIHED      =        78.1612
 1-4 NB =        20.1291  1-4 EEL =        41.3936  VDWAALS    =        50.2103
 EELEC  =       117.1854  EGB     =        86.3866  RESTRAINT  =         0.0000
 RM1ESCF=         7.2277
 CMAP   =         7.9150
 ------------------------------------------------------------------------------
