-------------------------------------------------------
          Amber 18 SANDER                              2018
          -------------------------------------------------------

  [-O]verwriting output

File Assignments:

 Here is the input file:

MD with GB7
 &cntrl
  nstlim = 10000, dt = 0.002,
  ntwr = 5000, ntwx = 500,
  ntc = 2, ntf = 2,
  ntt = 3, temp0 = 300, gamma_ln = 1.0,
  ntb = 0, igb = 7, cut = 9999.0,
  ifqnt = 1,
 /

 &qmmm
  qmmask = ':305', qmcharge = 0,
  qm_theory = 'RM1', qmcut = 20.0,
 /

--------------------------------------------------------------------------------
   1.  RESOURCE   USE:
--------------------------------------------------------------------------------

 NATOM  =    4676 NTYPES =      25 NBONH =    2308 MBONA  =    2422
 NTHETH =    5215 MTHETA =    3293 NPHIH =   10759 MPHIA  =   10499
 NHPARM =       0 NPARM  =       0 NNB   =   25728 NRES   =     305
 NBONA  =    2422 NTHETA =    3293 NPHIA =   10499 NUMBND =      93
 NUMANG =     210 NPTRA  =     208 NATYP =      49 NPHB   =       0
 IFBOX  =       0 NMXRS  =      30 IFCAP =       0 NEXTRA =       0
 NCOPY  =       0

 Implicit solvent radii are ArgH and AspGluO modified Bondi2 radii (mbondi3)
 Replacing prmtop screening parameters with GBn (igb=7) values

LOADING THE QUANTUM ATOMS AS GROUPS
     Mask :305; matches    30 atoms

--------------------------------------------------------------------------------
   2.  CONTROL  DATA  FOR  THE  RUN
--------------------------------------------------------------------------------

default_name

General flags:
     imin    =       0, nmropt  =       0

Nature and format of input:
     ntx     =       1, irest   =       0, ntrx    =       1

Nature and format of output:
     ntxo    =       2, ntpr    =      50, ntrx    =       1, ntwr    =    5000
     iwrap   =       0, ntwx    =     500, ntwv    =       0, ntwe    =       0
     ioutfm  =       1, ntwprt  =       0, idecomp =       0, rbornstat=      0

Potential function:
     ntf     =       2, ntb     =       0, igb     =       7, nsnb    =      25
     ipol    =       0, gbsa    =       0, iesp    =       0
     dielc   =   1.00000, cut     =9999.00000, intdiel =   1.00000
     saltcon =   0.00000, offset  =   0.09000, gbalpha=    1.09511
     gbbeta  =   1.90793, gbgamma =   2.50798, surften =   0.00500
     rdt     =   0.00000, rgbmax  =  25.00000  extdiel =  78.50000
     alpb  =        0

Frozen or restrained atoms:
     ibelly  =       0, ntr     =       0

Molecular dynamics:
     nstlim  =     10000, nscm    =      1000, nrespa  =         1
     t       =   0.00000, dt      =   0.00200, vlimit  =  20.00000

Langevin dynamics temperature regulation:
     ig      =   71277
     temp0   = 300.00000, tempi   =   0.00000, gamma_ln=   1.00000

SHAKE:
     ntc     =       2, jfastw  =       0
     tol     =   0.00001

QMMM options:
             ifqnt = True       nquant =       30
              qmgb =        2  qmcharge =        0   adjust_q =        2
              spin =        1     qmcut =  20.0000    qmshake =        1
          qmmm_int =        1
     lnk_atomic_no =        1   lnk_dis =   1.0900 lnk_method =        1
          qm_theory =     RM1 verbosity =        0
            qmqmdx = Analytical
      tight_p_conv = False (converge density to 0.05xSqrt[SCFCRT])
           scfconv = 0.100E-07  itrmax =     1000
      printcharges = False      printdipole = False      peptide_corr = False
    qmmmrij_incore = True
  qmqm_erep_incore = True
       pseudo_diag = True pseudo_diag_criteria =   0.0500
      diag_routine =        0
          qm_ewald =        0 qm_pme = False

--------------------------------------------------------------------------------
   3.  ATOMIC COORDINATES AND VELOCITIES
--------------------------------------------------------------------------------

default_name
 begin time read from input coords =     0.000 ps

 Number of triangulated 3-point waters found:        0
QMMM: ADJUSTING CHARGES
QMMM: ----------------------------------------------------------------------
QMMM: adjust_q = 2
QMMM: Uniformly adjusting the charge of MM atoms to conserve total charge.
QMMM:                             qm_charge =    0
QMMM: QM atom RESP charge sum (inc MM link) =    0.001
QMMM: Adjusting each MM atom resp charge by =    0.000
QMMM:          Sum of MM + QM region is now =   -2.999
QMMM: ----------------------------------------------------------------------

QMMM: Link Atom Information
QMMM: ------------------------------------------------------------------------
QMMM: nlink =     0
QMMM: ------------------------------------------------------------------------

  QMMM: QM Region Cartesian Coordinates (*=link atom)
  QMMM: QM_NO.   MM_NO.  ATOM         X         Y         Z
  QMMM:     1     4647      O        8.7359    1.1552   20.7104
  QMMM:     2     4648      C        8.3168    0.1541   21.3064
  QMMM:     3     4649      N        9.0925   -0.5888   22.1902
  QMMM:     4     4650      C       10.4185   -0.1371   22.4653
  QMMM:     5     4651      C       10.6013    1.1060   23.0706
  QMMM:     6     4652      C       11.8910    1.5385   23.3517
  QMMM:     7     4653      C       12.9787    0.7374   23.0257
  QMMM:     8     4654      C       12.7851   -0.4990   22.4246
  QMMM:     9     4655      C       11.5052   -0.9548   22.1392
  QMMM:    10     4656      N        6.9811   -0.2643   21.1353
  QMMM:    11     4657      C        6.2403    0.2978   20.0830
  QMMM:    12     4658      C        4.9909    0.9353   20.3538
  QMMM:    13     4659      N        4.2665    1.4677   19.2433
  QMMM:    14     4660      C        4.7824    1.3949   17.9397
  QMMM:    15     4661      N        5.9352    0.8068   17.6833
  QMMM:    16     4662      C        6.6557    0.2773   18.7678
  QMMM:    17     4663      H        8.8316   -1.5287   22.4943
  QMMM:    18     4664      H        9.7443    1.7405   23.3212
  QMMM:    19     4665      H       12.0421    2.5159   23.8202
  QMMM:    20     4666      H       13.9917    1.0984   23.2153
  QMMM:    21     4667      H       13.6468   -1.1188   22.1535
  QMMM:    22     4668      H       11.3546   -1.9290   21.6584
  QMMM:    23     4669      H        6.4996   -0.8926   21.7804
  QMMM:    24     4670      N        3.0948    2.0560   19.6603
  QMMM:    25     4671      H        4.2110    1.8672   17.1155
  QMMM:    26     4672      F        7.8207   -0.2395   18.4099
  QMMM:    27     4673      C        4.2346    1.2029   21.4826
  QMMM:    28     4674      H        4.4619    0.9628   22.5184
  QMMM:    29     4675      C        3.0738    1.9000   21.0096
  QMMM:    30     4676      H        2.2384    2.2852   21.6127

--------------------------------------------------------------------------------
  3.1 QM CALCULATION INFO
--------------------------------------------------------------------------------

QMMM: SINGLET STATE CALCULATION
QMMM: RHF CALCULATION, NO. OF DOUBLY OCCUPIED LEVELS = 50

--------------------------------------------------------------------------------
   4.  RESULTS
 NSTEP =        0   TIME(PS) =       0.000  TEMP(K) =     0.00  PRESS =     0.0
 Etot   =    -11954.4770  EKtot   =         0.0000  EPtot      =    -11954.4770
 BOND   =       143.9481  ANGLE   =       554.2429  DIHED      =      1193.4276
 1-4 NB =       950.1865  1-4 EEL =     12130.8807  VDWAALS    =     -2645.3373
 EELEC  =    -21571.9778  EGB     =     -2943.4398  RESTRAINT  =         0.0000
 RM1ESCF=        15.3313
 CMAP   =       218.2609
 ------------------------------------------------------------------------------

      A V E R A G E S   O V E R   10000 S T E P S

 NSTEP =    10000   TIME(PS) =      20.000  TEMP(K) =   285.28  PRESS =     0.0
 Etot   =     -5165.8623  EKtot   =      3322.0715  EPtot      =     -8487.9339
 BOND   =       887.1727  ANGLE   =      2277.9616  DIHED      =      1658.9450
 1-4 NB =      1043.7151  1-4 EEL =     12018.7410  VDWAALS    =     -2365.8732
 EELEC  =    -20954.5716  EGB     =     -3320.8095  RESTRAINT  =         0.0000
 RM1ESCF=        41.3324
 CMAP   =       225.4526
 ------------------------------------------------------------------------------

      R M S  F L U C T U A T I O N S

 NSTEP =    10000   TIME(PS) =      20.000  TEMP(K) =    45.04  PRESS =     0.0
 Etot   =      1084.7066  EKtot   =       524.4579  EPtot      =       562.2110
 BOND   =       121.1012  ANGLE   =       275.0652  DIHED      =        77.5949
 1-4 NB =        20.1057  1-4 EEL =        43.0239  VDWAALS    =        56.4592
 EELEC  =       139.5685  EGB     =       103.1730  RESTRAINT  =         0.0000
 RM1ESCF=         6.8334
 CMAP   =         9.1487
 ------------------------------------------------------------------------------
