-------------------------------------------------------
          Amber 18 SANDER                              2018
          -------------------------------------------------------

  [-O]verwriting output

File Assignments:

 Here is the input file:

MD with GB7
 &cntrl
  nstlim = 10000, dt = 0.002,
  ntwr = 5000, ntwx = 500,
  ntc = 2, ntf = 2,
  ntt = 3, temp0 = 300, gamma_ln = 1.0,
  ntb = 0, igb = 7, cut = 9999.0,
  ifqnt = 1,
 /

 &qmmm
  qmmask = ':305', qmcharge = 0,
  qm_theory = 'RM1', qmcut = 20.0,
 /

--------------------------------------------------------------------------------
   1.  RESOURCE   USE:
--------------------------------------------------------------------------------

 NATOM  =    4677 NTYPES =      24 NBONH =    2309 MBONA  =    2422
 NTHETH =    5217 MTHETA =    3293 NPHIH =   10764 MPHIA  =   10499
 NHPARM =       0 NPARM  =       0 NNB   =   25735 NRES   =     305
 NBONA  =    2422 NTHETA =    3293 NPHIA =   10499 NUMBND =      90
 NUMANG =     204 NPTRA  =     209 NATYP =      47 NPHB   =       0
 IFBOX  =       0 NMXRS  =      31 IFCAP =       0 NEXTRA =       0
 NCOPY  =       0

 Implicit solvent radii are ArgH and AspGluO modified Bondi2 radii (mbondi3)
 Replacing prmtop screening parameters with GBn (igb=7) values

LOADING THE QUANTUM ATOMS AS GROUPS
     Mask :305; matches    31 atoms

--------------------------------------------------------------------------------
   2.  CONTROL  DATA  FOR  THE  RUN
--------------------------------------------------------------------------------

default_name

General flags:
     imin    =       0, nmropt  =       0

Nature and format of input:
     ntx     =       1, irest   =       0, ntrx    =       1

Nature and format of output:
     ntxo    =       2, ntpr    =      50, ntrx    =       1, ntwr    =    5000
     iwrap   =       0, ntwx    =     500, ntwv    =       0, ntwe    =       0
     ioutfm  =       1, ntwprt  =       0, idecomp =       0, rbornstat=      0

Potential function:
     ntf     =       2, ntb     =       0, igb     =       7, nsnb    =      25
     ipol    =       0, gbsa    =       0, iesp    =       0
     dielc   =   1.00000, cut     =9999.00000, intdiel =   1.00000
     saltcon =   0.00000, offset  =   0.09000, gbalpha=    1.09511
     gbbeta  =   1.90793, gbgamma =   2.50798, surften =   0.00500
     rdt     =   0.00000, rgbmax  =  25.00000  extdiel =  78.50000
     alpb  =        0

Frozen or restrained atoms:
     ibelly  =       0, ntr     =       0

Molecular dynamics:
     nstlim  =     10000, nscm    =      1000, nrespa  =         1
     t       =   0.00000, dt      =   0.00200, vlimit  =  20.00000

Langevin dynamics temperature regulation:
     ig      =   71277
     temp0   = 300.00000, tempi   =   0.00000, gamma_ln=   1.00000

SHAKE:
     ntc     =       2, jfastw  =       0
     tol     =   0.00001

QMMM options:
             ifqnt = True       nquant =       31
              qmgb =        2  qmcharge =        0   adjust_q =        2
              spin =        1     qmcut =  20.0000    qmshake =        1
          qmmm_int =        1
     lnk_atomic_no =        1   lnk_dis =   1.0900 lnk_method =        1
          qm_theory =     RM1 verbosity =        0
            qmqmdx = Analytical
      tight_p_conv = False (converge density to 0.05xSqrt[SCFCRT])
           scfconv = 0.100E-07  itrmax =     1000
      printcharges = False      printdipole = False      peptide_corr = False
    qmmmrij_incore = True
  qmqm_erep_incore = True
       pseudo_diag = True pseudo_diag_criteria =   0.0500
      diag_routine =        0
          qm_ewald =        0 qm_pme = False

--------------------------------------------------------------------------------
   3.  ATOMIC COORDINATES AND VELOCITIES
--------------------------------------------------------------------------------

default_name
 begin time read from input coords =     0.000 ps

 Number of triangulated 3-point waters found:        0
QMMM: ADJUSTING CHARGES
QMMM: ----------------------------------------------------------------------
QMMM: adjust_q = 2
QMMM: Uniformly adjusting the charge of MM atoms to conserve total charge.
QMMM:                             qm_charge =    0
QMMM: QM atom RESP charge sum (inc MM link) =    0.000
QMMM: Adjusting each MM atom resp charge by =    0.000
QMMM:          Sum of MM + QM region is now =   -3.000
QMMM: ----------------------------------------------------------------------

QMMM: Link Atom Information
QMMM: ------------------------------------------------------------------------
QMMM: nlink =     0
QMMM: ------------------------------------------------------------------------

  QMMM: QM Region Cartesian Coordinates (*=link atom)
  QMMM: QM_NO.   MM_NO.  ATOM         X         Y         Z
  QMMM:     1     4647      O        8.6161    1.1546   20.7211
  QMMM:     2     4648      C        8.0821    0.2450   21.3793
  QMMM:     3     4649      N        8.7857   -0.4627   22.3487
  QMMM:     4     4650      C       10.1378   -0.0724   22.6042
  QMMM:     5     4651      C       10.3782    1.1559   23.2259
  QMMM:     6     4652      C       11.6887    1.5486   23.4638
  QMMM:     7     4653      C       12.7449    0.7283   23.0838
  QMMM:     8     4654      C       12.4924   -0.4901   22.4673
  QMMM:     9     4655      C       11.1899   -0.9075   22.2237
  QMMM:    10     4656      N        6.7338   -0.0967   21.1720
  QMMM:    11     4657      C        6.0955    0.4575   20.0475
  QMMM:    12     4658      C        4.9374    1.2457   20.1461
  QMMM:    13     4659      C        4.3836    1.7817   18.9480
  QMMM:    14     4660      C        4.9779    1.5268   17.6953
  QMMM:    15     4661      N        6.0695    0.7690   17.5871
  QMMM:    16     4662      C        6.6083    0.2615   18.7569
  QMMM:    17     4663      H        8.4500   -1.3434   22.7385
  QMMM:    18     4664      H        9.5470    1.8064   23.5195
  QMMM:    19     4665      H       11.8840    2.5142   23.9425
  QMMM:    20     4666      H       13.7776    1.0542   23.2450
  QMMM:    21     4667      H       13.3248   -1.1252   22.1501
  QMMM:    22     4668      H       10.9990   -1.8650   21.7271
  QMMM:    23     4669      H        6.1480   -0.5511   21.8820
  QMMM:    24     4670      N        3.2607    2.5245   19.2895
  QMMM:    25     4671      H        4.5930    1.9770   16.7720
  QMMM:    26     4672      F        7.7110   -0.4304   18.5616
  QMMM:    27     4673      C        4.1241    1.6958   21.2233
  QMMM:    28     4674      H        4.2846    1.4766   22.2742
  QMMM:    29     4675      C        3.1195    2.4833   20.6762
  QMMM:    30     4676      H        2.3020    3.0057   21.1919
  QMMM:    31     4677      H        2.7661    3.1321   18.6436

--------------------------------------------------------------------------------
  3.1 QM CALCULATION INFO
--------------------------------------------------------------------------------

QMMM: SINGLET STATE CALCULATION
QMMM: RHF CALCULATION, NO. OF DOUBLY OCCUPIED LEVELS = 50

--------------------------------------------------------------------------------
   4.  RESULTS
 NSTEP =        0   TIME(PS) =       0.000  TEMP(K) =     0.00  PRESS =     0.0
 Etot   =    -11985.8785  EKtot   =         0.0000  EPtot      =    -11985.8785
 BOND   =       144.0052  ANGLE   =       554.4592  DIHED      =      1192.9945
 1-4 NB =       951.1746  1-4 EEL =     12128.2364  VDWAALS    =     -2646.5418
 EELEC  =    -21560.9494  EGB     =     -2936.1940  RESTRAINT  =         0.0000
 RM1ESCF=       -31.6536
 CMAP   =       218.5905
 ------------------------------------------------------------------------------

      A V E R A G E S   O V E R   10000 S T E P S

 NSTEP =    10000   TIME(PS) =      20.000  TEMP(K) =   284.60  PRESS =     0.0
 Etot   =     -5231.4440  EKtot   =      3314.7490  EPtot      =     -8546.1930
 BOND   =       883.1500  ANGLE   =      2277.2144  DIHED      =      1657.6375
 1-4 NB =      1042.6898  1-4 EEL =     12011.0089  VDWAALS    =     -2384.4498
 EELEC  =    -20936.1643  EGB     =     -3330.5111  RESTRAINT  =         0.0000
 RM1ESCF=         6.2414
 CMAP   =       226.9902
 ------------------------------------------------------------------------------

      R M S  F L U C T U A T I O N S

 NSTEP =    10000   TIME(PS) =      20.000  TEMP(K) =    44.23  PRESS =     0.0
 Etot   =      1061.5234  EKtot   =       515.1610  EPtot      =       548.3088
 BOND   =       118.6981  ANGLE   =       271.1884  DIHED      =        78.7234
 1-4 NB =        19.6391  1-4 EEL =        41.4514  VDWAALS    =        49.0820
 EELEC  =       141.4254  EGB     =       110.9535  RESTRAINT  =         0.0000
 RM1ESCF=        12.0213
 CMAP   =         9.1223
 ------------------------------------------------------------------------------
