-------------------------------------------------------
          Amber 18 SANDER                              2018
          -------------------------------------------------------

  [-O]verwriting output

File Assignments:

 Here is the input file:

MD with GB7
 &cntrl
  nstlim = 10000, dt = 0.002,
  ntwr = 5000, ntwx = 500,
  ntc = 2, ntf = 2,
  ntt = 3, temp0 = 300, gamma_ln = 1.0,
  ntb = 0, igb = 7, cut = 9999.0,
  ifqnt = 1,
 /

 &qmmm
  qmmask = ':305', qmcharge = 0,
  qm_theory = 'RM1', qmcut = 20.0,
 /

--------------------------------------------------------------------------------
   1.  RESOURCE   USE:
--------------------------------------------------------------------------------

 NATOM  =    4685 NTYPES =      27 NBONH =    2318 MBONA  =    2420
 NTHETH =    5242 MTHETA =    3289 NPHIH =   10797 MPHIA  =   10506
 NHPARM =       0 NPARM  =       0 NNB   =   25798 NRES   =     305
 NBONA  =    2420 NTHETA =    3289 NPHIA =   10506 NUMBND =      90
 NUMANG =     205 NPTRA  =     221 NATYP =      48 NPHB   =       0
 IFBOX  =       0 NMXRS  =      39 IFCAP =       0 NEXTRA =       0
 NCOPY  =       0

 Implicit solvent radii are ArgH and AspGluO modified Bondi2 radii (mbondi3)
 Replacing prmtop screening parameters with GBn (igb=7) values

LOADING THE QUANTUM ATOMS AS GROUPS
     Mask :305; matches    39 atoms

--------------------------------------------------------------------------------
   2.  CONTROL  DATA  FOR  THE  RUN
--------------------------------------------------------------------------------

default_name

General flags:
     imin    =       0, nmropt  =       0

Nature and format of input:
     ntx     =       1, irest   =       0, ntrx    =       1

Nature and format of output:
     ntxo    =       2, ntpr    =      50, ntrx    =       1, ntwr    =    5000
     iwrap   =       0, ntwx    =     500, ntwv    =       0, ntwe    =       0
     ioutfm  =       1, ntwprt  =       0, idecomp =       0, rbornstat=      0

Potential function:
     ntf     =       2, ntb     =       0, igb     =       7, nsnb    =      25
     ipol    =       0, gbsa    =       0, iesp    =       0
     dielc   =   1.00000, cut     =9999.00000, intdiel =   1.00000
     saltcon =   0.00000, offset  =   0.09000, gbalpha=    1.09511
     gbbeta  =   1.90793, gbgamma =   2.50798, surften =   0.00500
     rdt     =   0.00000, rgbmax  =  25.00000  extdiel =  78.50000
     alpb  =        0

Frozen or restrained atoms:
     ibelly  =       0, ntr     =       0

Molecular dynamics:
     nstlim  =     10000, nscm    =      1000, nrespa  =         1
     t       =   0.00000, dt      =   0.00200, vlimit  =  20.00000

Langevin dynamics temperature regulation:
     ig      =   71277
     temp0   = 300.00000, tempi   =   0.00000, gamma_ln=   1.00000

SHAKE:
     ntc     =       2, jfastw  =       0
     tol     =   0.00001

QMMM options:
             ifqnt = True       nquant =       39
              qmgb =        2  qmcharge =        0   adjust_q =        2
              spin =        1     qmcut =  20.0000    qmshake =        1
          qmmm_int =        1
     lnk_atomic_no =        1   lnk_dis =   1.0900 lnk_method =        1
          qm_theory =     RM1 verbosity =        0
            qmqmdx = Analytical
      tight_p_conv = False (converge density to 0.05xSqrt[SCFCRT])
           scfconv = 0.100E-07  itrmax =     1000
      printcharges = False      printdipole = False      peptide_corr = False
    qmmmrij_incore = True
  qmqm_erep_incore = True
       pseudo_diag = True pseudo_diag_criteria =   0.0500
      diag_routine =        0
          qm_ewald =        0 qm_pme = False

--------------------------------------------------------------------------------
   3.  ATOMIC COORDINATES AND VELOCITIES
--------------------------------------------------------------------------------

default_name
 begin time read from input coords =     0.000 ps

 Number of triangulated 3-point waters found:        0
QMMM: ADJUSTING CHARGES
QMMM: ----------------------------------------------------------------------
QMMM: adjust_q = 2
QMMM: Uniformly adjusting the charge of MM atoms to conserve total charge.
QMMM:                             qm_charge =    0
QMMM: QM atom RESP charge sum (inc MM link) =    0.002
QMMM: Adjusting each MM atom resp charge by =    0.000
QMMM:          Sum of MM + QM region is now =   -2.998
QMMM: ----------------------------------------------------------------------

QMMM: Link Atom Information
QMMM: ------------------------------------------------------------------------
QMMM: nlink =     0
QMMM: ------------------------------------------------------------------------

  QMMM: QM Region Cartesian Coordinates (*=link atom)
  QMMM: QM_NO.   MM_NO.  ATOM         X         Y         Z
  QMMM:     1     4647      O        9.2429    1.2707   20.9646
  QMMM:     2     4648      C        8.6751    0.6116   21.8386
  QMMM:     3     4649      C        9.3013    0.2045   23.1542
  QMMM:     4     4650      C       10.8233    0.0923   23.0263
  QMMM:     5     4651      C       11.1961   -1.0255   22.0499
  QMMM:     6     4652      C       12.3927   -1.8509   22.5115
  QMMM:     7     4653      C       13.4812   -0.9984   23.1424
  QMMM:     8     4654      C       12.9584   -0.1185   24.2754
  QMMM:     9     4655      C       11.4402   -0.1683   24.4009
  QMMM:    10     4656      N        7.3323    0.2603   21.6614
  QMMM:    11     4657      C        6.6318    0.6028   20.4902
  QMMM:    12     4658      C        5.3907    1.2347   20.5647
  QMMM:    13     4659      C        4.7170    1.5612   19.3766
  QMMM:    14     4660      C        5.3289    1.2164   18.1418
  QMMM:    15     4661      N        6.5181    0.6067   18.0382
  QMMM:    16     4662      C        7.1500    0.3093   19.2064
  QMMM:    17     4663      H        8.8797   -0.7524   23.5400
  QMMM:    18     4664      H        9.0203    0.9708   23.9133
  QMMM:    19     4665      H       11.2281    1.0645   22.6419
  QMMM:    20     4666      H       10.3444   -1.7135   21.8604
  QMMM:    21     4667      H       11.3853   -0.5835   21.0543
  QMMM:    22     4668      H       12.8124   -2.4067   21.6480
  QMMM:    23     4669      H       12.0676   -2.6417   23.2209
  QMMM:    24     4670      H       14.2952   -1.6587   23.5126
  QMMM:    25     4671      H       13.9678   -0.3777   22.3639
  QMMM:    26     4672      H       13.4345   -0.4155   25.2321
  QMMM:    27     4673      H       13.2849    0.9316   24.1158
  QMMM:    28     4674      H       11.0884    0.5796   25.1413
  QMMM:    29     4675      H       11.0995   -1.1420   24.8092
  QMMM:    30     4676      H        6.7895   -0.1794   22.4107
  QMMM:    31     4677      H        4.9682    1.4688   21.5519
  QMMM:    32     4678      N        3.4469    2.1227   19.3620
  QMMM:    33     4679      H        4.8689    1.4581   17.1783
  QMMM:    34     4680      F        8.3249   -0.2804   19.0581
  QMMM:    35     4681      C        2.8933    2.6997   20.5939
  QMMM:    36     4682      H        3.2022    2.6110   18.4978
  QMMM:    37     4683      H        1.9313    3.1939   20.3669
  QMMM:    38     4684      H        2.6948    1.9110   21.3434
  QMMM:    39     4685      H        3.5354    3.4640   21.0690

--------------------------------------------------------------------------------
  3.1 QM CALCULATION INFO
--------------------------------------------------------------------------------

QMMM: SINGLET STATE CALCULATION
QMMM: RHF CALCULATION, NO. OF DOUBLY OCCUPIED LEVELS = 52

--------------------------------------------------------------------------------
   4.  RESULTS
 NSTEP =        0   TIME(PS) =       0.000  TEMP(K) =     0.00  PRESS =     0.0
 Etot   =    -12040.7148  EKtot   =         0.0000  EPtot      =    -12040.7148
 BOND   =       142.2665  ANGLE   =       551.5353  DIHED      =      1199.2664
 1-4 NB =       950.1496  1-4 EEL =     12144.6438  VDWAALS    =     -2642.4651
 EELEC  =    -21561.5631  EGB     =     -2938.0993  RESTRAINT  =         0.0000
 RM1ESCF=      -105.8940
 CMAP   =       219.4452
 ------------------------------------------------------------------------------

      A V E R A G E S   O V E R   10000 S T E P S

 NSTEP =    10000   TIME(PS) =      20.000  TEMP(K) =   285.31  PRESS =     0.0
 Etot   =     -5260.1453  EKtot   =      3327.1911  EPtot      =     -8587.3364
 BOND   =       882.9750  ANGLE   =      2279.9073  DIHED      =      1663.7086
 1-4 NB =      1046.0455  1-4 EEL =     12025.0884  VDWAALS    =     -2371.2443
 EELEC  =    -20939.1626  EGB     =     -3330.6365  RESTRAINT  =         0.0000
 RM1ESCF=       -66.3490
 CMAP   =       222.3312
 ------------------------------------------------------------------------------

      R M S  F L U C T U A T I O N S

 NSTEP =    10000   TIME(PS) =      20.000  TEMP(K) =    44.81  PRESS =     0.0
 Etot   =      1080.3773  EKtot   =       522.5443  EPtot      =       559.8586
 BOND   =       120.2669  ANGLE   =       276.7406  DIHED      =        79.1835
 1-4 NB =        20.6139  1-4 EEL =        40.9494  VDWAALS    =        53.6643
 EELEC  =       137.4519  EGB     =       106.1673  RESTRAINT  =         0.0000
 RM1ESCF=         9.0400
 CMAP   =         9.4215
 ------------------------------------------------------------------------------
