-------------------------------------------------------
          Amber 18 SANDER                              2018
          -------------------------------------------------------

  [-O]verwriting output

File Assignments:

 Here is the input file:

MD with GB7
 &cntrl
  nstlim = 10000, dt = 0.002,
  ntwr = 5000, ntwx = 500,
  ntc = 2, ntf = 2,
  ntt = 3, temp0 = 300, gamma_ln = 1.0,
  ntb = 0, igb = 7, cut = 9999.0,
  ifqnt = 1,
 /

 &qmmm
  qmmask = ':305', qmcharge = 0,
  qm_theory = 'RM1', qmcut = 20.0,
 /

--------------------------------------------------------------------------------
   1.  RESOURCE   USE:
--------------------------------------------------------------------------------

 NATOM  =    4683 NTYPES =      25 NBONH =    2315 MBONA  =    2422
 NTHETH =    5236 MTHETA =    3293 NPHIH =   10791 MPHIA  =   10515
 NHPARM =       0 NPARM  =       0 NNB   =   25793 NRES   =     305
 NBONA  =    2422 NTHETA =    3293 NPHIA =   10515 NUMBND =      91
 NUMANG =     207 NPTRA  =     221 NATYP =      48 NPHB   =       0
 IFBOX  =       0 NMXRS  =      37 IFCAP =       0 NEXTRA =       0
 NCOPY  =       0

 Implicit solvent radii are ArgH and AspGluO modified Bondi2 radii (mbondi3)
 Replacing prmtop screening parameters with GBn (igb=7) values

LOADING THE QUANTUM ATOMS AS GROUPS
     Mask :305; matches    37 atoms

--------------------------------------------------------------------------------
   2.  CONTROL  DATA  FOR  THE  RUN
--------------------------------------------------------------------------------

default_name

General flags:
     imin    =       0, nmropt  =       0

Nature and format of input:
     ntx     =       1, irest   =       0, ntrx    =       1

Nature and format of output:
     ntxo    =       2, ntpr    =      50, ntrx    =       1, ntwr    =    5000
     iwrap   =       0, ntwx    =     500, ntwv    =       0, ntwe    =       0
     ioutfm  =       1, ntwprt  =       0, idecomp =       0, rbornstat=      0

Potential function:
     ntf     =       2, ntb     =       0, igb     =       7, nsnb    =      25
     ipol    =       0, gbsa    =       0, iesp    =       0
     dielc   =   1.00000, cut     =9999.00000, intdiel =   1.00000
     saltcon =   0.00000, offset  =   0.09000, gbalpha=    1.09511
     gbbeta  =   1.90793, gbgamma =   2.50798, surften =   0.00500
     rdt     =   0.00000, rgbmax  =  25.00000  extdiel =  78.50000
     alpb  =        0

Frozen or restrained atoms:
     ibelly  =       0, ntr     =       0

Molecular dynamics:
     nstlim  =     10000, nscm    =      1000, nrespa  =         1
     t       =   0.00000, dt      =   0.00200, vlimit  =  20.00000

Langevin dynamics temperature regulation:
     ig      =   71277
     temp0   = 300.00000, tempi   =   0.00000, gamma_ln=   1.00000

SHAKE:
     ntc     =       2, jfastw  =       0
     tol     =   0.00001

QMMM options:
             ifqnt = True       nquant =       37
              qmgb =        2  qmcharge =        0   adjust_q =        2
              spin =        1     qmcut =  20.0000    qmshake =        1
          qmmm_int =        1
     lnk_atomic_no =        1   lnk_dis =   1.0900 lnk_method =        1
          qm_theory =     RM1 verbosity =        0
            qmqmdx = Analytical
      tight_p_conv = False (converge density to 0.05xSqrt[SCFCRT])
           scfconv = 0.100E-07  itrmax =     1000
      printcharges = False      printdipole = False      peptide_corr = False
    qmmmrij_incore = True
  qmqm_erep_incore = True
       pseudo_diag = True pseudo_diag_criteria =   0.0500
      diag_routine =        0
          qm_ewald =        0 qm_pme = False

--------------------------------------------------------------------------------
   3.  ATOMIC COORDINATES AND VELOCITIES
--------------------------------------------------------------------------------

default_name
 begin time read from input coords =     0.000 ps

 Number of triangulated 3-point waters found:        0
QMMM: ADJUSTING CHARGES
QMMM: ----------------------------------------------------------------------
QMMM: adjust_q = 2
QMMM: Uniformly adjusting the charge of MM atoms to conserve total charge.
QMMM:                             qm_charge =    0
QMMM: QM atom RESP charge sum (inc MM link) =    0.001
QMMM: Adjusting each MM atom resp charge by =    0.000
QMMM:          Sum of MM + QM region is now =   -2.999
QMMM: ----------------------------------------------------------------------

QMMM: Link Atom Information
QMMM: ------------------------------------------------------------------------
QMMM: nlink =     0
QMMM: ------------------------------------------------------------------------

  QMMM: QM Region Cartesian Coordinates (*=link atom)
  QMMM: QM_NO.   MM_NO.  ATOM         X         Y         Z
  QMMM:     1     4647      O        9.2708    1.2699   20.9635
  QMMM:     2     4648      C        8.6673    0.6700   21.8534
  QMMM:     3     4649      C        9.2702    0.2450   23.1717
  QMMM:     4     4650      C       10.7931    0.1150   23.0458
  QMMM:     5     4651      C       11.1566   -0.9879   22.0485
  QMMM:     6     4652      C       12.3536   -1.8241   22.4894
  QMMM:     7     4653      C       13.4455   -0.9854   23.1325
  QMMM:     8     4654      C       12.9275   -0.1295   24.2850
  QMMM:     9     4655      C       11.4082   -0.1795   24.4133
  QMMM:    10     4656      N        7.3003    0.3999   21.6808
  QMMM:    11     4657      C        6.6550    0.6782   20.4656
  QMMM:    12     4658      C        5.3979    1.2987   20.4223
  QMMM:    13     4659      C        4.8034    1.5790   19.1617
  QMMM:    14     4660      C        5.4534    1.2183   17.9617
  QMMM:    15     4661      N        6.6366    0.6131   17.9854
  QMMM:    16     4662      C        7.2045    0.3525   19.2163
  QMMM:    17     4663      H        8.8302   -0.7106   23.5391
  QMMM:    18     4664      H        8.9960    1.0050   23.9391
  QMMM:    19     4665      H       11.2084    1.0909   22.6808
  QMMM:    20     4666      H       10.3012   -1.6703   21.8528
  QMMM:    21     4667      H       11.3431   -0.5299   21.0585
  QMMM:    22     4668      H       12.7688   -2.3629   21.6120
  QMMM:    23     4669      H       12.0310   -2.6288   23.1838
  QMMM:    24     4670      H       14.2600   -1.6527   23.4858
  QMMM:    25     4671      H       13.9298   -0.3500   22.3665
  QMMM:    26     4672      H       13.4061   -0.4482   25.2325
  QMMM:    27     4673      H       13.2567    0.9225   24.1494
  QMMM:    28     4674      H       11.0586    0.5507   25.1724
  QMMM:    29     4675      H       11.0688   -1.1628   24.7993
  QMMM:    30     4676      H        6.7188    0.0362   22.4434
  QMMM:    31     4677      C        4.4562    1.7718   21.4000
  QMMM:    32     4678      N        3.5696    2.1633   19.4265
  QMMM:    33     4679      H        5.0385    1.4467   16.9764
  QMMM:    34     4680      F        8.3826   -0.2422   19.1245
  QMMM:    35     4681      N        3.3824    2.3005   20.7719
  QMMM:    36     4682      H        2.9923    2.6764   18.7586
  QMMM:    37     4683      H        4.5442    1.7204   22.4929

--------------------------------------------------------------------------------
  3.1 QM CALCULATION INFO
--------------------------------------------------------------------------------

QMMM: SINGLET STATE CALCULATION
QMMM: RHF CALCULATION, NO. OF DOUBLY OCCUPIED LEVELS = 53

--------------------------------------------------------------------------------
   4.  RESULTS
 NSTEP =        0   TIME(PS) =       0.000  TEMP(K) =     0.00  PRESS =     0.0
 Etot   =    -11985.8444  EKtot   =         0.0000  EPtot      =    -11985.8444
 BOND   =       141.0096  ANGLE   =       550.9577  DIHED      =      1204.1199
 1-4 NB =       953.7745  1-4 EEL =     12153.0552  VDWAALS    =     -2640.4663
 EELEC  =    -21573.2412  EGB     =     -2932.1931  RESTRAINT  =         0.0000
 RM1ESCF=       -65.0211
 CMAP   =       222.1604
 ------------------------------------------------------------------------------

      A V E R A G E S   O V E R   10000 S T E P S

 NSTEP =    10000   TIME(PS) =      20.000  TEMP(K) =   287.09  PRESS =     0.0
 Etot   =     -5174.1175  EKtot   =      3347.1832  EPtot      =     -8521.3007
 BOND   =       887.3875  ANGLE   =      2292.5232  DIHED      =      1670.0758
 1-4 NB =      1046.1132  1-4 EEL =     12048.0203  VDWAALS    =     -2368.5362
 EELEC  =    -20911.1388  EGB     =     -3381.1221  RESTRAINT  =         0.0000
 RM1ESCF=       -26.5159
 CMAP   =       221.8922
 ------------------------------------------------------------------------------

      R M S  F L U C T U A T I O N S

 NSTEP =    10000   TIME(PS) =      20.000  TEMP(K) =    44.88  PRESS =     0.0
 Etot   =      1080.2547  EKtot   =       523.2302  EPtot      =       559.0408
 BOND   =       119.2755  ANGLE   =       277.5197  DIHED      =        81.0248
 1-4 NB =        20.1321  1-4 EEL =        39.8752  VDWAALS    =        53.6131
 EELEC  =       156.4338  EGB     =       134.4163  RESTRAINT  =         0.0000
 RM1ESCF=         9.0984
 CMAP   =         9.2237
 ------------------------------------------------------------------------------
