-------------------------------------------------------
          Amber 18 SANDER                              2018
          -------------------------------------------------------

  [-O]verwriting output

File Assignments:

 Here is the input file:

MD with GB7
 &cntrl
  nstlim = 10000, dt = 0.002,
  ntwr = 5000, ntwx = 500,
  ntc = 2, ntf = 2,
  ntt = 3, temp0 = 300, gamma_ln = 1.0,
  ntb = 0, igb = 7, cut = 9999.0,
  ifqnt = 1,
 /

 &qmmm
  qmmask = ':305', qmcharge = 0,
  qm_theory = 'RM1', qmcut = 20.0,
 /

--------------------------------------------------------------------------------
   1.  RESOURCE   USE:
--------------------------------------------------------------------------------

 NATOM  =    4683 NTYPES =      26 NBONH =    2315 MBONA  =    2422
 NTHETH =    5236 MTHETA =    3293 NPHIH =   10791 MPHIA  =   10515
 NHPARM =       0 NPARM  =       0 NNB   =   25792 NRES   =     305
 NBONA  =    2422 NTHETA =    3293 NPHIA =   10515 NUMBND =      91
 NUMANG =     207 NPTRA  =     221 NATYP =      49 NPHB   =       0
 IFBOX  =       0 NMXRS  =      37 IFCAP =       0 NEXTRA =       0
 NCOPY  =       0

 Implicit solvent radii are ArgH and AspGluO modified Bondi2 radii (mbondi3)
 Replacing prmtop screening parameters with GBn (igb=7) values

LOADING THE QUANTUM ATOMS AS GROUPS
     Mask :305; matches    37 atoms

--------------------------------------------------------------------------------
   2.  CONTROL  DATA  FOR  THE  RUN
--------------------------------------------------------------------------------

default_name

General flags:
     imin    =       0, nmropt  =       0

Nature and format of input:
     ntx     =       1, irest   =       0, ntrx    =       1

Nature and format of output:
     ntxo    =       2, ntpr    =      50, ntrx    =       1, ntwr    =    5000
     iwrap   =       0, ntwx    =     500, ntwv    =       0, ntwe    =       0
     ioutfm  =       1, ntwprt  =       0, idecomp =       0, rbornstat=      0

Potential function:
     ntf     =       2, ntb     =       0, igb     =       7, nsnb    =      25
     ipol    =       0, gbsa    =       0, iesp    =       0
     dielc   =   1.00000, cut     =9999.00000, intdiel =   1.00000
     saltcon =   0.00000, offset  =   0.09000, gbalpha=    1.09511
     gbbeta  =   1.90793, gbgamma =   2.50798, surften =   0.00500
     rdt     =   0.00000, rgbmax  =  25.00000  extdiel =  78.50000
     alpb  =        0

Frozen or restrained atoms:
     ibelly  =       0, ntr     =       0

Molecular dynamics:
     nstlim  =     10000, nscm    =      1000, nrespa  =         1
     t       =   0.00000, dt      =   0.00200, vlimit  =  20.00000

Langevin dynamics temperature regulation:
     ig      =   71277
     temp0   = 300.00000, tempi   =   0.00000, gamma_ln=   1.00000

SHAKE:
     ntc     =       2, jfastw  =       0
     tol     =   0.00001

QMMM options:
             ifqnt = True       nquant =       37
              qmgb =        2  qmcharge =        0   adjust_q =        2
              spin =        1     qmcut =  20.0000    qmshake =        1
          qmmm_int =        1
     lnk_atomic_no =        1   lnk_dis =   1.0900 lnk_method =        1
          qm_theory =     RM1 verbosity =        0
            qmqmdx = Analytical
      tight_p_conv = False (converge density to 0.05xSqrt[SCFCRT])
           scfconv = 0.100E-07  itrmax =     1000
      printcharges = False      printdipole = False      peptide_corr = False
    qmmmrij_incore = True
  qmqm_erep_incore = True
       pseudo_diag = True pseudo_diag_criteria =   0.0500
      diag_routine =        0
          qm_ewald =        0 qm_pme = False

--------------------------------------------------------------------------------
   3.  ATOMIC COORDINATES AND VELOCITIES
--------------------------------------------------------------------------------

default_name
 begin time read from input coords =     0.000 ps

 Number of triangulated 3-point waters found:        0
QMMM: ADJUSTING CHARGES
QMMM: ----------------------------------------------------------------------
QMMM: adjust_q = 2
QMMM: Uniformly adjusting the charge of MM atoms to conserve total charge.
QMMM:                             qm_charge =    0
QMMM: QM atom RESP charge sum (inc MM link) =    0.003
QMMM: Adjusting each MM atom resp charge by =    0.000
QMMM:          Sum of MM + QM region is now =   -2.997
QMMM: ----------------------------------------------------------------------

QMMM: Link Atom Information
QMMM: ------------------------------------------------------------------------
QMMM: nlink =     0
QMMM: ------------------------------------------------------------------------

  QMMM: QM Region Cartesian Coordinates (*=link atom)
  QMMM: QM_NO.   MM_NO.  ATOM         X         Y         Z
  QMMM:     1     4647      O        9.2676    1.2626   20.9613
  QMMM:     2     4648      C        8.6634    0.6825   21.8600
  QMMM:     3     4649      C        9.2743    0.2488   23.1741
  QMMM:     4     4650      C       10.7971    0.1316   23.0463
  QMMM:     5     4651      C       11.1701   -0.9630   22.0443
  QMMM:     6     4652      C       12.3532   -1.8143   22.4950
  QMMM:     7     4653      C       13.4508   -0.9890   23.1464
  QMMM:     8     4654      C       12.9324   -0.1087   24.2812
  QMMM:     9     4655      C       11.4145   -0.1614   24.4134
  QMMM:    10     4656      N        7.2954    0.4179   21.6984
  QMMM:    11     4657      C        6.6437    0.7096   20.4891
  QMMM:    12     4658      C        5.4099    1.3805   20.4470
  QMMM:    13     4659      C        4.7962    1.6398   19.1837
  QMMM:    14     4660      C        5.4104    1.2227   17.9938
  QMMM:    15     4661      N        6.5816    0.5861   18.0095
  QMMM:    16     4662      C        7.1615    0.3429   19.2391
  QMMM:    17     4663      H        8.8395   -0.7125   23.5314
  QMMM:    18     4664      H        8.9932    0.9986   23.9503
  QMMM:    19     4665      H       11.2023    1.1131   22.6846
  QMMM:    20     4666      H       10.3137   -1.6364   21.8265
  QMMM:    21     4667      H       11.3771   -0.4974   21.0622
  QMMM:    22     4668      H       12.7688   -2.3585   21.6219
  QMMM:    23     4669      H       12.0147   -2.6142   23.1872
  QMMM:    24     4670      H       14.2483   -1.6677   23.5194
  QMMM:    25     4671      H       13.9591   -0.3709   22.3804
  QMMM:    26     4672      H       13.4149   -0.4041   25.2343
  QMMM:    27     4673      H       13.2571    0.9416   24.1210
  QMMM:    28     4674      H       11.0644    0.5696   25.1711
  QMMM:    29     4675      H       11.0755   -1.1438   24.8014
  QMMM:    30     4676      H        6.7051    0.1208   22.4810
  QMMM:    31     4677      N        4.6090    1.8903   21.4769
  QMMM:    32     4678      N        3.6016    2.3048   19.4571
  QMMM:    33     4679      H        4.9846    1.4261   17.0044
  QMMM:    34     4680      F        8.3267   -0.2809   19.1444
  QMMM:    35     4681      C        3.5380    2.4518   20.8529
  QMMM:    36     4682      H        2.6925    2.9446   21.3750
  QMMM:    37     4683      H        3.0442    2.7824   18.7573

--------------------------------------------------------------------------------
  3.1 QM CALCULATION INFO
--------------------------------------------------------------------------------

QMMM: SINGLET STATE CALCULATION
QMMM: RHF CALCULATION, NO. OF DOUBLY OCCUPIED LEVELS = 53

--------------------------------------------------------------------------------
   4.  RESULTS
 NSTEP =        0   TIME(PS) =       0.000  TEMP(K) =     0.00  PRESS =     0.0
 Etot   =    -12004.2992  EKtot   =         0.0000  EPtot      =    -12004.2992
 BOND   =       141.0798  ANGLE   =       551.0463  DIHED      =      1204.6494
 1-4 NB =       953.9465  1-4 EEL =     12152.8173  VDWAALS    =     -2641.1855
 EELEC  =    -21574.3269  EGB     =     -2935.6654  RESTRAINT  =         0.0000
 RM1ESCF=       -78.9289
 CMAP   =       222.2681
 ------------------------------------------------------------------------------

      A V E R A G E S   O V E R   10000 S T E P S

 NSTEP =    10000   TIME(PS) =      20.000  TEMP(K) =   286.32  PRESS =     0.0
 Etot   =     -5214.6902  EKtot   =      3338.1718  EPtot      =     -8552.8619
 BOND   =       886.9568  ANGLE   =      2288.0132  DIHED      =      1659.5285
 1-4 NB =      1046.3089  1-4 EEL =     12013.7035  VDWAALS    =     -2362.7530
 EELEC  =    -20913.9823  EGB     =     -3346.9638  RESTRAINT  =         0.0000
 RM1ESCF=       -44.2116
 CMAP   =       220.5380
 ------------------------------------------------------------------------------

      R M S  F L U C T U A T I O N S

 NSTEP =    10000   TIME(PS) =      20.000  TEMP(K) =    44.59  PRESS =     0.0
 Etot   =      1072.3177  EKtot   =       519.8996  EPtot      =       554.3517
 BOND   =       119.2767  ANGLE   =       275.7987  DIHED      =        77.4649
 1-4 NB =        20.5810  1-4 EEL =        42.8056  VDWAALS    =        55.6235
 EELEC  =       150.4268  EGB     =       115.7654  RESTRAINT  =         0.0000
 RM1ESCF=         8.3969
 CMAP   =         8.1641
 ------------------------------------------------------------------------------
