-------------------------------------------------------
          Amber 18 SANDER                              2018
          -------------------------------------------------------

  [-O]verwriting output

File Assignments:

 Here is the input file:

MD with GB7
 &cntrl
  nstlim = 10000, dt = 0.002,
  ntwr = 5000, ntwx = 500,
  ntc = 2, ntf = 2,
  ntt = 3, temp0 = 300, gamma_ln = 1.0,
  ntb = 0, igb = 7, cut = 9999.0,
  ifqnt = 1,
 /

 &qmmm
  qmmask = ':305', qmcharge = 0,
  qm_theory = 'RM1', qmcut = 20.0,
 /

--------------------------------------------------------------------------------
   1.  RESOURCE   USE:
--------------------------------------------------------------------------------

 NATOM  =    4677 NTYPES =      23 NBONH =    2308 MBONA  =    2423
 NTHETH =    5215 MTHETA =    3294 NPHIH =   10758 MPHIA  =   10500
 NHPARM =       0 NPARM  =       0 NNB   =   25731 NRES   =     305
 NBONA  =    2423 NTHETA =    3294 NPHIA =   10500 NUMBND =      83
 NUMANG =     193 NPTRA  =     204 NATYP =      44 NPHB   =       0
 IFBOX  =       0 NMXRS  =      31 IFCAP =       0 NEXTRA =       0
 NCOPY  =       0

 Implicit solvent radii are ArgH and AspGluO modified Bondi2 radii (mbondi3)
 Replacing prmtop screening parameters with GBn (igb=7) values

LOADING THE QUANTUM ATOMS AS GROUPS
     Mask :305; matches    31 atoms

--------------------------------------------------------------------------------
   2.  CONTROL  DATA  FOR  THE  RUN
--------------------------------------------------------------------------------

default_name

General flags:
     imin    =       0, nmropt  =       0

Nature and format of input:
     ntx     =       1, irest   =       0, ntrx    =       1

Nature and format of output:
     ntxo    =       2, ntpr    =      50, ntrx    =       1, ntwr    =    5000
     iwrap   =       0, ntwx    =     500, ntwv    =       0, ntwe    =       0
     ioutfm  =       1, ntwprt  =       0, idecomp =       0, rbornstat=      0

Potential function:
     ntf     =       2, ntb     =       0, igb     =       7, nsnb    =      25
     ipol    =       0, gbsa    =       0, iesp    =       0
     dielc   =   1.00000, cut     =9999.00000, intdiel =   1.00000
     saltcon =   0.00000, offset  =   0.09000, gbalpha=    1.09511
     gbbeta  =   1.90793, gbgamma =   2.50798, surften =   0.00500
     rdt     =   0.00000, rgbmax  =  25.00000  extdiel =  78.50000
     alpb  =        0

Frozen or restrained atoms:
     ibelly  =       0, ntr     =       0

Molecular dynamics:
     nstlim  =     10000, nscm    =      1000, nrespa  =         1
     t       =   0.00000, dt      =   0.00200, vlimit  =  20.00000

Langevin dynamics temperature regulation:
     ig      =   71277
     temp0   = 300.00000, tempi   =   0.00000, gamma_ln=   1.00000

SHAKE:
     ntc     =       2, jfastw  =       0
     tol     =   0.00001

QMMM options:
             ifqnt = True       nquant =       31
              qmgb =        2  qmcharge =        0   adjust_q =        2
              spin =        1     qmcut =  20.0000    qmshake =        1
          qmmm_int =        1
     lnk_atomic_no =        1   lnk_dis =   1.0900 lnk_method =        1
          qm_theory =     RM1 verbosity =        0
            qmqmdx = Analytical
      tight_p_conv = False (converge density to 0.05xSqrt[SCFCRT])
           scfconv = 0.100E-07  itrmax =     1000
      printcharges = False      printdipole = False      peptide_corr = False
    qmmmrij_incore = True
  qmqm_erep_incore = True
       pseudo_diag = True pseudo_diag_criteria =   0.0500
      diag_routine =        0
          qm_ewald =        0 qm_pme = False

--------------------------------------------------------------------------------
   3.  ATOMIC COORDINATES AND VELOCITIES
--------------------------------------------------------------------------------

default_name
 begin time read from input coords =     0.000 ps

 Number of triangulated 3-point waters found:        0
QMMM: ADJUSTING CHARGES
QMMM: ----------------------------------------------------------------------
QMMM: adjust_q = 2
QMMM: Uniformly adjusting the charge of MM atoms to conserve total charge.
QMMM:                             qm_charge =    0
QMMM: QM atom RESP charge sum (inc MM link) =    0.001
QMMM: Adjusting each MM atom resp charge by =    0.000
QMMM:          Sum of MM + QM region is now =   -2.999
QMMM: ----------------------------------------------------------------------

QMMM: Link Atom Information
QMMM: ------------------------------------------------------------------------
QMMM: nlink =     0
QMMM: ------------------------------------------------------------------------

  QMMM: QM Region Cartesian Coordinates (*=link atom)
  QMMM: QM_NO.   MM_NO.  ATOM         X         Y         Z
  QMMM:     1     4647      O        8.7991    1.1500   20.7385
  QMMM:     2     4648      C        8.3627    0.1826   21.3766
  QMMM:     3     4649      N        9.1254   -0.5556   22.2589
  QMMM:     4     4650      C       10.4582   -0.1288   22.5378
  QMMM:     5     4651      C       10.6439    1.0979   23.1784
  QMMM:     6     4652      C       11.9398    1.5235   23.4413
  QMMM:     7     4653      C       13.0247    0.7393   23.0704
  QMMM:     8     4654      C       12.8165   -0.4799   22.4411
  QMMM:     9     4655      C       11.5355   -0.9353   22.1663
  QMMM:    10     4656      N        7.0152   -0.2298   21.2258
  QMMM:    11     4657      C        6.2693    0.3359   20.1813
  QMMM:    12     4658      C        5.0431    1.0237   20.3991
  QMMM:    13     4659      C        4.2960    1.4908   19.3014
  QMMM:    14     4660      C        4.8216    1.2935   17.9878
  QMMM:    15     4661      N        5.9823    0.6989   17.7496
  QMMM:    16     4662      C        6.6914    0.2500   18.8571
  QMMM:    17     4663      H        8.8172   -1.4706   22.6049
  QMMM:    18     4664      H        9.7834    1.7040   23.4814
  QMMM:    19     4665      H       12.0877    2.4830   23.9370
  QMMM:    20     4666      H       14.0372    1.1177   23.2165
  QMMM:    21     4667      H       13.6775   -1.0863   22.1463
  QMMM:    22     4668      H       11.3831   -1.9040   21.6695
  QMMM:    23     4669      H        6.4827   -0.6216   22.0039
  QMMM:    24     4670      H        4.2740    1.6515   17.1062
  QMMM:    25     4671      F        7.8672   -0.2644   18.5351
  QMMM:    26     4672      N        4.6073    1.2310   21.7029
  QMMM:    27     4673      C        3.4740    1.8794   21.8573
  QMMM:    28     4674      C        2.6828    2.3128   20.7268
  QMMM:    29     4675      H        3.1179    2.0650   22.8939
  QMMM:    30     4676      N        3.0752    2.1190   19.4816
  QMMM:    31     4677      H        1.7039    2.8152   20.8613

--------------------------------------------------------------------------------
  3.1 QM CALCULATION INFO
--------------------------------------------------------------------------------

QMMM: SINGLET STATE CALCULATION
QMMM: RHF CALCULATION, NO. OF DOUBLY OCCUPIED LEVELS = 52

--------------------------------------------------------------------------------
   4.  RESULTS
 NSTEP =        0   TIME(PS) =       0.000  TEMP(K) =     0.00  PRESS =     0.0
 Etot   =    -11952.3229  EKtot   =         0.0000  EPtot      =    -11952.3229
 BOND   =       143.4187  ANGLE   =       553.5644  DIHED      =      1196.4832
 1-4 NB =       952.8569  1-4 EEL =     12137.4977  VDWAALS    =     -2645.1728
 EELEC  =    -21570.0490  EGB     =     -2951.3864  RESTRAINT  =         0.0000
 RM1ESCF=        10.9300
 CMAP   =       219.5344
 ------------------------------------------------------------------------------

      A V E R A G E S   O V E R   10000 S T E P S

 NSTEP =    10000   TIME(PS) =      20.000  TEMP(K) =   284.40  PRESS =     0.0
 Etot   =     -5215.8930  EKtot   =      3312.6836  EPtot      =     -8528.5766
 BOND   =       882.4130  ANGLE   =      2277.8704  DIHED      =      1659.5197
 1-4 NB =      1044.0621  1-4 EEL =     11997.6745  VDWAALS    =     -2373.8404
 EELEC  =    -20934.6120  EGB     =     -3334.3695  RESTRAINT  =         0.0000
 RM1ESCF=        31.1126
 CMAP   =       221.5929
 ------------------------------------------------------------------------------

      R M S  F L U C T U A T I O N S

 NSTEP =    10000   TIME(PS) =      20.000  TEMP(K) =    44.19  PRESS =     0.0
 Etot   =      1059.4726  EKtot   =       514.6676  EPtot      =       546.7468
 BOND   =       118.6987  ANGLE   =       271.9099  DIHED      =        78.6768
 1-4 NB =        20.0069  1-4 EEL =        43.9208  VDWAALS    =        52.4562
 EELEC  =       139.9218  EGB     =       102.3309  RESTRAINT  =         0.0000
 RM1ESCF=         7.8628
 CMAP   =         8.3488
 ------------------------------------------------------------------------------
