-------------------------------------------------------
          Amber 18 SANDER                              2018
          -------------------------------------------------------

  [-O]verwriting output

File Assignments:

 Here is the input file:

MD with GB7
 &cntrl
  nstlim = 10000, dt = 0.002,
  ntwr = 5000, ntwx = 500,
  ntc = 2, ntf = 2,
  ntt = 3, temp0 = 300, gamma_ln = 1.0,
  ntb = 0, igb = 7, cut = 9999.0,
  ifqnt = 1,
 /

 &qmmm
  qmmask = ':305', qmcharge = 0,
  qm_theory = 'RM1', qmcut = 20.0,
 /

--------------------------------------------------------------------------------
   1.  RESOURCE   USE:
--------------------------------------------------------------------------------

 NATOM  =    4676 NTYPES =      24 NBONH =    2308 MBONA  =    2422
 NTHETH =    5215 MTHETA =    3293 NPHIH =   10759 MPHIA  =   10499
 NHPARM =       0 NPARM  =       0 NNB   =   25728 NRES   =     305
 NBONA  =    2422 NTHETA =    3293 NPHIA =   10499 NUMBND =      89
 NUMANG =     206 NPTRA  =     207 NATYP =      47 NPHB   =       0
 IFBOX  =       0 NMXRS  =      30 IFCAP =       0 NEXTRA =       0
 NCOPY  =       0

 Implicit solvent radii are ArgH and AspGluO modified Bondi2 radii (mbondi3)
 Replacing prmtop screening parameters with GBn (igb=7) values

LOADING THE QUANTUM ATOMS AS GROUPS
     Mask :305; matches    30 atoms

--------------------------------------------------------------------------------
   2.  CONTROL  DATA  FOR  THE  RUN
--------------------------------------------------------------------------------

default_name

General flags:
     imin    =       0, nmropt  =       0

Nature and format of input:
     ntx     =       1, irest   =       0, ntrx    =       1

Nature and format of output:
     ntxo    =       2, ntpr    =      50, ntrx    =       1, ntwr    =    5000
     iwrap   =       0, ntwx    =     500, ntwv    =       0, ntwe    =       0
     ioutfm  =       1, ntwprt  =       0, idecomp =       0, rbornstat=      0

Potential function:
     ntf     =       2, ntb     =       0, igb     =       7, nsnb    =      25
     ipol    =       0, gbsa    =       0, iesp    =       0
     dielc   =   1.00000, cut     =9999.00000, intdiel =   1.00000
     saltcon =   0.00000, offset  =   0.09000, gbalpha=    1.09511
     gbbeta  =   1.90793, gbgamma =   2.50798, surften =   0.00500
     rdt     =   0.00000, rgbmax  =  25.00000  extdiel =  78.50000
     alpb  =        0

Frozen or restrained atoms:
     ibelly  =       0, ntr     =       0

Molecular dynamics:
     nstlim  =     10000, nscm    =      1000, nrespa  =         1
     t       =   0.00000, dt      =   0.00200, vlimit  =  20.00000

Langevin dynamics temperature regulation:
     ig      =   71277
     temp0   = 300.00000, tempi   =   0.00000, gamma_ln=   1.00000

SHAKE:
     ntc     =       2, jfastw  =       0
     tol     =   0.00001

QMMM options:
             ifqnt = True       nquant =       30
              qmgb =        2  qmcharge =        0   adjust_q =        2
              spin =        1     qmcut =  20.0000    qmshake =        1
          qmmm_int =        1
     lnk_atomic_no =        1   lnk_dis =   1.0900 lnk_method =        1
          qm_theory =     RM1 verbosity =        0
            qmqmdx = Analytical
      tight_p_conv = False (converge density to 0.05xSqrt[SCFCRT])
           scfconv = 0.100E-07  itrmax =     1000
      printcharges = False      printdipole = False      peptide_corr = False
    qmmmrij_incore = True
  qmqm_erep_incore = True
       pseudo_diag = True pseudo_diag_criteria =   0.0500
      diag_routine =        0
          qm_ewald =        0 qm_pme = False

--------------------------------------------------------------------------------
   3.  ATOMIC COORDINATES AND VELOCITIES
--------------------------------------------------------------------------------

default_name
 begin time read from input coords =     0.000 ps

 Number of triangulated 3-point waters found:        0
QMMM: ADJUSTING CHARGES
QMMM: ----------------------------------------------------------------------
QMMM: adjust_q = 2
QMMM: Uniformly adjusting the charge of MM atoms to conserve total charge.
QMMM:                             qm_charge =    0
QMMM: QM atom RESP charge sum (inc MM link) =   -0.001
QMMM: Adjusting each MM atom resp charge by =   -0.000
QMMM:          Sum of MM + QM region is now =   -3.001
QMMM: ----------------------------------------------------------------------

QMMM: Link Atom Information
QMMM: ------------------------------------------------------------------------
QMMM: nlink =     0
QMMM: ------------------------------------------------------------------------

  QMMM: QM Region Cartesian Coordinates (*=link atom)
  QMMM: QM_NO.   MM_NO.  ATOM         X         Y         Z
  QMMM:     1     4647      O        8.7307    1.1713   20.7936
  QMMM:     2     4648      C        8.3594    0.1215   21.3367
  QMMM:     3     4649      N        9.1517   -0.6108   22.2088
  QMMM:     4     4650      C       10.4578   -0.1196   22.5072
  QMMM:     5     4651      C       10.5957    1.1214   23.1281
  QMMM:     6     4652      C       11.8707    1.5970   23.4049
  QMMM:     7     4653      C       12.9842    0.8377   23.0696
  QMMM:     8     4654      C       12.8331   -0.4045   22.4657
  QMMM:     9     4655      C       11.5693   -0.9008   22.1805
  QMMM:    10     4656      N        7.0507   -0.3679   21.1116
  QMMM:    11     4657      C        6.3150    0.2007   20.0621
  QMMM:    12     4658      N        5.1103    0.8574   20.3442
  QMMM:    13     4659      C        4.3239    1.3976   19.2853
  QMMM:    14     4660      C        4.8369    1.3145   17.9467
  QMMM:    15     4661      N        5.9846    0.7308   17.6615
  QMMM:    16     4662      C        6.7080    0.1925   18.7360
  QMMM:    17     4663      H        8.9301   -1.5703   22.4783
  QMMM:    18     4664      H        9.7171    1.7220   23.3893
  QMMM:    19     4665      H       11.9892    2.5751   23.8803
  QMMM:    20     4666      H       13.9861    1.2360   23.2472
  QMMM:    21     4667      H       13.7140   -0.9927   22.1938
  QMMM:    22     4668      H       11.4510   -1.8766   21.6939
  QMMM:    23     4669      H        6.6573   -1.1810   21.5914
  QMMM:    24     4670      N        3.1783    1.9277   19.7932
  QMMM:    25     4671      H        4.2749    1.7759   17.1176
  QMMM:    26     4672      F        7.8573   -0.3545   18.3776
  QMMM:    27     4673      C        4.4223    1.0683   21.5320
  QMMM:    28     4674      H        4.7880    0.7835   22.5189
  QMMM:    29     4675      C        3.2380    1.7301   21.1634
  QMMM:    30     4676      H        2.4359    2.0812   21.8207

--------------------------------------------------------------------------------
  3.1 QM CALCULATION INFO
--------------------------------------------------------------------------------

QMMM: SINGLET STATE CALCULATION
QMMM: RHF CALCULATION, NO. OF DOUBLY OCCUPIED LEVELS = 50

--------------------------------------------------------------------------------
   4.  RESULTS
 NSTEP =        0   TIME(PS) =       0.000  TEMP(K) =     0.00  PRESS =     0.0
 Etot   =    -11953.3689  EKtot   =         0.0000  EPtot      =    -11953.3689
 BOND   =       142.9012  ANGLE   =       552.4766  DIHED      =      1195.0176
 1-4 NB =       953.0785  1-4 EEL =     12137.5572  VDWAALS    =     -2646.4776
 EELEC  =    -21565.1891  EGB     =     -2951.0963  RESTRAINT  =         0.0000
 RM1ESCF=         8.4743
 CMAP   =       219.8888
 ------------------------------------------------------------------------------

      A V E R A G E S   O V E R   10000 S T E P S

 NSTEP =    10000   TIME(PS) =      20.000  TEMP(K) =   285.64  PRESS =     0.0
 Etot   =     -5171.4201  EKtot   =      3326.2554  EPtot      =     -8497.6755
 BOND   =       888.0087  ANGLE   =      2284.4738  DIHED      =      1660.3258
 1-4 NB =      1043.3862  1-4 EEL =     12017.4489  VDWAALS    =     -2362.2809
 EELEC  =    -20917.5283  EGB     =     -3364.2612  RESTRAINT  =         0.0000
 RM1ESCF=        30.6169
 CMAP   =       222.1345
 ------------------------------------------------------------------------------

      R M S  F L U C T U A T I O N S

 NSTEP =    10000   TIME(PS) =      20.000  TEMP(K) =    44.97  PRESS =     0.0
 Etot   =      1081.8887  EKtot   =       523.6551  EPtot      =       560.2831
 BOND   =       120.9465  ANGLE   =       276.7755  DIHED      =        77.9088
 1-4 NB =        19.9445  1-4 EEL =        39.2380  VDWAALS    =        57.5385
 EELEC  =       130.0162  EGB     =        94.4848  RESTRAINT  =         0.0000
 RM1ESCF=         6.3537
 CMAP   =         8.4525
 ------------------------------------------------------------------------------
