-------------------------------------------------------
          Amber 18 SANDER                              2018
          -------------------------------------------------------

  [-O]verwriting output

File Assignments:

 Here is the input file:

MD with GB7
 &cntrl
  nstlim = 10000, dt = 0.002,
  ntwr = 5000, ntwx = 500,
  ntc = 2, ntf = 2,
  ntt = 3, temp0 = 300, gamma_ln = 1.0,
  ntb = 0, igb = 7, cut = 9999.0,
  ifqnt = 1,
 /

 &qmmm
  qmmask = ':305', qmcharge = 0,
  qm_theory = 'RM1', qmcut = 20.0,
 /

--------------------------------------------------------------------------------
   1.  RESOURCE   USE:
--------------------------------------------------------------------------------

 NATOM  =    4685 NTYPES =      25 NBONH =    2316 MBONA  =    2423
 NTHETH =    5238 MTHETA =    3294 NPHIH =   10795 MPHIA  =   10516
 NHPARM =       0 NPARM  =       0 NNB   =   25803 NRES   =     305
 NBONA  =    2423 NTHETA =    3294 NPHIA =   10516 NUMBND =      86
 NUMANG =     199 NPTRA  =     218 NATYP =      46 NPHB   =       0
 IFBOX  =       0 NMXRS  =      39 IFCAP =       0 NEXTRA =       0
 NCOPY  =       0

 Implicit solvent radii are ArgH and AspGluO modified Bondi2 radii (mbondi3)
 Replacing prmtop screening parameters with GBn (igb=7) values

LOADING THE QUANTUM ATOMS AS GROUPS
     Mask :305; matches    39 atoms

--------------------------------------------------------------------------------
   2.  CONTROL  DATA  FOR  THE  RUN
--------------------------------------------------------------------------------

default_name

General flags:
     imin    =       0, nmropt  =       0

Nature and format of input:
     ntx     =       1, irest   =       0, ntrx    =       1

Nature and format of output:
     ntxo    =       2, ntpr    =      50, ntrx    =       1, ntwr    =    5000
     iwrap   =       0, ntwx    =     500, ntwv    =       0, ntwe    =       0
     ioutfm  =       1, ntwprt  =       0, idecomp =       0, rbornstat=      0

Potential function:
     ntf     =       2, ntb     =       0, igb     =       7, nsnb    =      25
     ipol    =       0, gbsa    =       0, iesp    =       0
     dielc   =   1.00000, cut     =9999.00000, intdiel =   1.00000
     saltcon =   0.00000, offset  =   0.09000, gbalpha=    1.09511
     gbbeta  =   1.90793, gbgamma =   2.50798, surften =   0.00500
     rdt     =   0.00000, rgbmax  =  25.00000  extdiel =  78.50000
     alpb  =        0

Frozen or restrained atoms:
     ibelly  =       0, ntr     =       0

Molecular dynamics:
     nstlim  =     10000, nscm    =      1000, nrespa  =         1
     t       =   0.00000, dt      =   0.00200, vlimit  =  20.00000

Langevin dynamics temperature regulation:
     ig      =   71277
     temp0   = 300.00000, tempi   =   0.00000, gamma_ln=   1.00000

SHAKE:
     ntc     =       2, jfastw  =       0
     tol     =   0.00001

QMMM options:
             ifqnt = True       nquant =       39
              qmgb =        2  qmcharge =        0   adjust_q =        2
              spin =        1     qmcut =  20.0000    qmshake =        1
          qmmm_int =        1
     lnk_atomic_no =        1   lnk_dis =   1.0900 lnk_method =        1
          qm_theory =     RM1 verbosity =        0
            qmqmdx = Analytical
      tight_p_conv = False (converge density to 0.05xSqrt[SCFCRT])
           scfconv = 0.100E-07  itrmax =     1000
      printcharges = False      printdipole = False      peptide_corr = False
    qmmmrij_incore = True
  qmqm_erep_incore = True
       pseudo_diag = True pseudo_diag_criteria =   0.0500
      diag_routine =        0
          qm_ewald =        0 qm_pme = False

--------------------------------------------------------------------------------
   3.  ATOMIC COORDINATES AND VELOCITIES
--------------------------------------------------------------------------------

default_name
 begin time read from input coords =     0.000 ps

 Number of triangulated 3-point waters found:        0
QMMM: ADJUSTING CHARGES
QMMM: ----------------------------------------------------------------------
QMMM: adjust_q = 2
QMMM: Uniformly adjusting the charge of MM atoms to conserve total charge.
QMMM:                             qm_charge =    0
QMMM: QM atom RESP charge sum (inc MM link) =   -0.000
QMMM: Adjusting each MM atom resp charge by =   -0.000
QMMM:          Sum of MM + QM region is now =   -3.000
QMMM: ----------------------------------------------------------------------

QMMM: Link Atom Information
QMMM: ------------------------------------------------------------------------
QMMM: nlink =     0
QMMM: ------------------------------------------------------------------------

  QMMM: QM Region Cartesian Coordinates (*=link atom)
  QMMM: QM_NO.   MM_NO.  ATOM         X         Y         Z
  QMMM:     1     4647      O        9.3309    1.2904   20.9742
  QMMM:     2     4648      C        8.7818    0.6253   21.8602
  QMMM:     3     4649      C        9.4214    0.2113   23.1635
  QMMM:     4     4650      C       10.9397    0.0852   23.0191
  QMMM:     5     4651      C       11.2960   -1.0396   22.0446
  QMMM:     6     4652      C       12.4805   -1.8802   22.5096
  QMMM:     7     4653      C       13.5816   -1.0431   23.1392
  QMMM:     8     4654      C       13.0729   -0.1449   24.2639
  QMMM:     9     4655      C       11.5557   -0.1798   24.3925
  QMMM:    10     4656      N        7.4359    0.2824   21.7141
  QMMM:    11     4657      C        6.6857    0.6350   20.5808
  QMMM:    12     4658      C        5.4260    1.2818   20.7311
  QMMM:    13     4659      C        4.6271    1.4565   19.5899
  QMMM:    14     4660      C        5.1424    1.0728   18.3042
  QMMM:    15     4661      N        6.3496    0.5635   18.1338
  QMMM:    16     4662      C        7.1100    0.3396   19.2831
  QMMM:    17     4663      H        8.9983   -0.7436   23.5541
  QMMM:    18     4664      H        9.1546    0.9781   23.9275
  QMMM:    19     4665      H       11.3497    1.0528   22.6288
  QMMM:    20     4666      H       10.4359   -1.7176   21.8556
  QMMM:    21     4667      H       11.4923   -0.6025   21.0480
  QMMM:    22     4668      H       12.8953   -2.4435   21.6485
  QMMM:    23     4669      H       12.1438   -2.6636   23.2218
  QMMM:    24     4670      H       14.3798   -1.7169   23.5180
  QMMM:    25     4671      H       14.0810   -0.4362   22.3584
  QMMM:    26     4672      H       13.5465   -0.4351   25.2240
  QMMM:    27     4673      H       13.4082    0.8994   24.0882
  QMMM:    28     4674      H       11.2106    0.5716   25.1322
  QMMM:    29     4675      H       11.2094   -1.1501   24.8041
  QMMM:    30     4676      H        6.9418   -0.2621   22.4301
  QMMM:    31     4677      C        4.9348    1.7575   21.9762
  QMMM:    32     4678      N        3.3476    1.9823   19.6499
  QMMM:    33     4679      H        4.5451    1.2119   17.3949
  QMMM:    34     4680      F        8.2801   -0.1875   19.0387
  QMMM:    35     4681      C        2.9150    2.3884   20.8354
  QMMM:    36     4682      C        3.6945    2.3242   22.0309
  QMMM:    37     4683      H        1.8827    2.7871   20.8504
  QMMM:    38     4684      H        3.2736    2.7148   22.9700
  QMMM:    39     4685      H        5.5481    1.6677   22.8874

--------------------------------------------------------------------------------
  3.1 QM CALCULATION INFO
--------------------------------------------------------------------------------

QMMM: SINGLET STATE CALCULATION
QMMM: RHF CALCULATION, NO. OF DOUBLY OCCUPIED LEVELS = 55

--------------------------------------------------------------------------------
   4.  RESULTS
 NSTEP =        0   TIME(PS) =       0.000  TEMP(K) =     0.00  PRESS =     0.0
 Etot   =    -12003.0595  EKtot   =         0.0000  EPtot      =    -12003.0595
 BOND   =       142.0305  ANGLE   =       550.6106  DIHED      =      1202.7656
 1-4 NB =       952.3102  1-4 EEL =     12150.6287  VDWAALS    =     -2643.2456
 EELEC  =    -21567.5778  EGB     =     -2951.8951  RESTRAINT  =         0.0000
 RM1ESCF=       -59.6179
 CMAP   =       220.9314
 ------------------------------------------------------------------------------

      A V E R A G E S   O V E R   10000 S T E P S

 NSTEP =    10000   TIME(PS) =      20.000  TEMP(K) =   285.49  PRESS =     0.0
 Etot   =     -5231.5628  EKtot   =      3329.8591  EPtot      =     -8561.4218
 BOND   =       884.9795  ANGLE   =      2279.8950  DIHED      =      1658.8931
 1-4 NB =      1042.6395  1-4 EEL =     12027.2644  VDWAALS    =     -2375.2695
 EELEC  =    -20943.8591  EGB     =     -3334.2076  RESTRAINT  =         0.0000
 RM1ESCF=       -25.1134
 CMAP   =       223.3563
 ------------------------------------------------------------------------------

      R M S  F L U C T U A T I O N S

 NSTEP =    10000   TIME(PS) =      20.000  TEMP(K) =    44.86  PRESS =     0.0
 Etot   =      1080.7871  EKtot   =       523.2493  EPtot      =       559.5164
 BOND   =       120.6964  ANGLE   =       276.7124  DIHED      =        78.4550
 1-4 NB =        19.7074  1-4 EEL =        39.4295  VDWAALS    =        52.1237
 EELEC  =       135.9129  EGB     =       108.5594  RESTRAINT  =         0.0000
 RM1ESCF=         9.3268
 CMAP   =         8.3138
 ------------------------------------------------------------------------------
