-------------------------------------------------------
          Amber 18 SANDER                              2018
          -------------------------------------------------------

  [-O]verwriting output

File Assignments:

 Here is the input file:

MD with GB7
 &cntrl
  nstlim = 10000, dt = 0.002,
  ntwr = 5000, ntwx = 500,
  ntc = 2, ntf = 2,
  ntt = 3, temp0 = 300, gamma_ln = 1.0,
  ntb = 0, igb = 7, cut = 9999.0,
  ifqnt = 1,
 /

 &qmmm
  qmmask = ':305', qmcharge = 0,
  qm_theory = 'RM1', qmcut = 20.0,
 /

--------------------------------------------------------------------------------
   1.  RESOURCE   USE:
--------------------------------------------------------------------------------

 NATOM  =    4676 NTYPES =      25 NBONH =    2308 MBONA  =    2422
 NTHETH =    5215 MTHETA =    3293 NPHIH =   10759 MPHIA  =   10499
 NHPARM =       0 NPARM  =       0 NNB   =   25728 NRES   =     305
 NBONA  =    2422 NTHETA =    3293 NPHIA =   10499 NUMBND =      89
 NUMANG =     202 NPTRA  =     207 NATYP =      48 NPHB   =       0
 IFBOX  =       0 NMXRS  =      30 IFCAP =       0 NEXTRA =       0
 NCOPY  =       0

 Implicit solvent radii are ArgH and AspGluO modified Bondi2 radii (mbondi3)
 Replacing prmtop screening parameters with GBn (igb=7) values

LOADING THE QUANTUM ATOMS AS GROUPS
     Mask :305; matches    30 atoms

--------------------------------------------------------------------------------
   2.  CONTROL  DATA  FOR  THE  RUN
--------------------------------------------------------------------------------

default_name

General flags:
     imin    =       0, nmropt  =       0

Nature and format of input:
     ntx     =       1, irest   =       0, ntrx    =       1

Nature and format of output:
     ntxo    =       2, ntpr    =      50, ntrx    =       1, ntwr    =    5000
     iwrap   =       0, ntwx    =     500, ntwv    =       0, ntwe    =       0
     ioutfm  =       1, ntwprt  =       0, idecomp =       0, rbornstat=      0

Potential function:
     ntf     =       2, ntb     =       0, igb     =       7, nsnb    =      25
     ipol    =       0, gbsa    =       0, iesp    =       0
     dielc   =   1.00000, cut     =9999.00000, intdiel =   1.00000
     saltcon =   0.00000, offset  =   0.09000, gbalpha=    1.09511
     gbbeta  =   1.90793, gbgamma =   2.50798, surften =   0.00500
     rdt     =   0.00000, rgbmax  =  25.00000  extdiel =  78.50000
     alpb  =        0

Frozen or restrained atoms:
     ibelly  =       0, ntr     =       0

Molecular dynamics:
     nstlim  =     10000, nscm    =      1000, nrespa  =         1
     t       =   0.00000, dt      =   0.00200, vlimit  =  20.00000

Langevin dynamics temperature regulation:
     ig      =   71277
     temp0   = 300.00000, tempi   =   0.00000, gamma_ln=   1.00000

SHAKE:
     ntc     =       2, jfastw  =       0
     tol     =   0.00001

QMMM options:
             ifqnt = True       nquant =       30
              qmgb =        2  qmcharge =        0   adjust_q =        2
              spin =        1     qmcut =  20.0000    qmshake =        1
          qmmm_int =        1
     lnk_atomic_no =        1   lnk_dis =   1.0900 lnk_method =        1
          qm_theory =     RM1 verbosity =        0
            qmqmdx = Analytical
      tight_p_conv = False (converge density to 0.05xSqrt[SCFCRT])
           scfconv = 0.100E-07  itrmax =     1000
      printcharges = False      printdipole = False      peptide_corr = False
    qmmmrij_incore = True
  qmqm_erep_incore = True
       pseudo_diag = True pseudo_diag_criteria =   0.0500
      diag_routine =        0
          qm_ewald =        0 qm_pme = False

--------------------------------------------------------------------------------
   3.  ATOMIC COORDINATES AND VELOCITIES
--------------------------------------------------------------------------------

default_name
 begin time read from input coords =     0.000 ps

 Number of triangulated 3-point waters found:        0
QMMM: ADJUSTING CHARGES
QMMM: ----------------------------------------------------------------------
QMMM: adjust_q = 2
QMMM: Uniformly adjusting the charge of MM atoms to conserve total charge.
QMMM:                             qm_charge =    0
QMMM: QM atom RESP charge sum (inc MM link) =   -0.001
QMMM: Adjusting each MM atom resp charge by =   -0.000
QMMM:          Sum of MM + QM region is now =   -3.001
QMMM: ----------------------------------------------------------------------

QMMM: Link Atom Information
QMMM: ------------------------------------------------------------------------
QMMM: nlink =     0
QMMM: ------------------------------------------------------------------------

  QMMM: QM Region Cartesian Coordinates (*=link atom)
  QMMM: QM_NO.   MM_NO.  ATOM         X         Y         Z
  QMMM:     1     4647      O        8.6583    1.1081   20.6790
  QMMM:     2     4648      C        8.1515    0.1758   21.3343
  QMMM:     3     4649      N        8.8666   -0.5209   22.2981
  QMMM:     4     4650      C       10.2099   -0.1004   22.5604
  QMMM:     5     4651      C       10.4142    1.1360   23.1788
  QMMM:     6     4652      C       11.7134    1.5509   23.4397
  QMMM:     7     4653      C       12.7839    0.7428   23.0757
  QMMM:     8     4654      C       12.5697   -0.4792   22.4484
  QMMM:     9     4655      C       11.2800   -0.9161   22.1866
  QMMM:    10     4656      N        6.8135   -0.2105   21.1286
  QMMM:    11     4657      C        6.1494    0.3741   20.0367
  QMMM:    12     4658      C        4.9577    1.1148   20.1640
  QMMM:    13     4659      C        4.3724    1.7016   19.0022
  QMMM:    14     4660      C        4.9502    1.5145   17.7306
  QMMM:    15     4661      N        6.0624    0.7925   17.5849
  QMMM:    16     4662      C        6.6349    0.2578   18.7264
  QMMM:    17     4663      H        8.5559   -1.4266   22.6548
  QMMM:    18     4664      H        9.5658    1.7711   23.4592
  QMMM:    19     4665      H       11.8830    2.5207   23.9177
  QMMM:    20     4666      H       13.8069    1.0889   23.2497
  QMMM:    21     4667      H       13.4174   -1.0955   22.1353
  QMMM:    22     4668      H       11.1050   -1.8773   21.6872
  QMMM:    23     4669      H        6.2426   -0.6344   21.8581
  QMMM:    24     4670      N        3.2400    2.3838   19.4419
  QMMM:    25     4671      H        4.5371    1.9766   16.8286
  QMMM:    26     4672      F        7.7548   -0.4042   18.4792
  QMMM:    27     4673      N        4.1832    1.4191   21.2930
  QMMM:    28     4674      C        3.1684    2.1947   20.8249
  QMMM:    29     4675      H        2.3613    2.6183   21.4571
  QMMM:    30     4676      H        2.6825    3.0129   18.8625

--------------------------------------------------------------------------------
  3.1 QM CALCULATION INFO
--------------------------------------------------------------------------------

QMMM: SINGLET STATE CALCULATION
QMMM: RHF CALCULATION, NO. OF DOUBLY OCCUPIED LEVELS = 50

--------------------------------------------------------------------------------
   4.  RESULTS
 NSTEP =        0   TIME(PS) =       0.000  TEMP(K) =     0.00  PRESS =     0.0
 Etot   =    -11981.5626  EKtot   =         0.0000  EPtot      =    -11981.5626
 BOND   =       142.8339  ANGLE   =       552.7958  DIHED      =      1193.8297
 1-4 NB =       951.5753  1-4 EEL =     12135.1160  VDWAALS    =     -2646.1862
 EELEC  =    -21559.5636  EGB     =     -2948.4708  RESTRAINT  =         0.0000
 RM1ESCF=       -22.5015
 CMAP   =       219.0090
 ------------------------------------------------------------------------------

      A V E R A G E S   O V E R   10000 S T E P S

 NSTEP =    10000   TIME(PS) =      20.000  TEMP(K) =   284.89  PRESS =     0.0
 Etot   =     -5212.3950  EKtot   =      3317.5656  EPtot      =     -8529.9606
 BOND   =       883.9777  ANGLE   =      2276.9393  DIHED      =      1655.3732
 1-4 NB =      1043.7941  1-4 EEL =     12005.5448  VDWAALS    =     -2370.8639
 EELEC  =    -20900.5225  EGB     =     -3355.7315  RESTRAINT  =         0.0000
 RM1ESCF=         7.2696
 CMAP   =       224.2586
 ------------------------------------------------------------------------------

      R M S  F L U C T U A T I O N S

 NSTEP =    10000   TIME(PS) =      20.000  TEMP(K) =    44.80  PRESS =     0.0
 Etot   =      1077.5800  EKtot   =       521.7201  EPtot      =       557.8281
 BOND   =       119.9184  ANGLE   =       274.4643  DIHED      =        76.7060
 1-4 NB =        20.2073  1-4 EEL =        42.8915  VDWAALS    =        55.2367
 EELEC  =       146.7600  EGB     =       105.5846  RESTRAINT  =         0.0000
 RM1ESCF=         8.7814
 CMAP   =         9.2261
 ------------------------------------------------------------------------------
