-------------------------------------------------------
          Amber 18 SANDER                              2018
          -------------------------------------------------------

  [-O]verwriting output

File Assignments:

 Here is the input file:

MD with GB7
 &cntrl
  nstlim = 10000, dt = 0.002,
  ntwr = 5000, ntwx = 500,
  ntc = 2, ntf = 2,
  ntt = 3, temp0 = 300, gamma_ln = 1.0,
  ntb = 0, igb = 7, cut = 9999.0,
  ifqnt = 1,
 /

 &qmmm
  qmmask = ':305', qmcharge = 0,
  qm_theory = 'RM1', qmcut = 20.0,
 /

--------------------------------------------------------------------------------
   1.  RESOURCE   USE:
--------------------------------------------------------------------------------

 NATOM  =    4683 NTYPES =      27 NBONH =    2315 MBONA  =    2422
 NTHETH =    5236 MTHETA =    3293 NPHIH =   10791 MPHIA  =   10514
 NHPARM =       0 NPARM  =       0 NNB   =   25792 NRES   =     305
 NBONA  =    2422 NTHETA =    3293 NPHIA =   10514 NUMBND =      93
 NUMANG =     211 NPTRA  =     219 NATYP =      50 NPHB   =       0
 IFBOX  =       0 NMXRS  =      37 IFCAP =       0 NEXTRA =       0
 NCOPY  =       0

 Implicit solvent radii are ArgH and AspGluO modified Bondi2 radii (mbondi3)
 Replacing prmtop screening parameters with GBn (igb=7) values

LOADING THE QUANTUM ATOMS AS GROUPS
     Mask :305; matches    37 atoms

--------------------------------------------------------------------------------
   2.  CONTROL  DATA  FOR  THE  RUN
--------------------------------------------------------------------------------

default_name

General flags:
     imin    =       0, nmropt  =       0

Nature and format of input:
     ntx     =       1, irest   =       0, ntrx    =       1

Nature and format of output:
     ntxo    =       2, ntpr    =      50, ntrx    =       1, ntwr    =    5000
     iwrap   =       0, ntwx    =     500, ntwv    =       0, ntwe    =       0
     ioutfm  =       1, ntwprt  =       0, idecomp =       0, rbornstat=      0

Potential function:
     ntf     =       2, ntb     =       0, igb     =       7, nsnb    =      25
     ipol    =       0, gbsa    =       0, iesp    =       0
     dielc   =   1.00000, cut     =9999.00000, intdiel =   1.00000
     saltcon =   0.00000, offset  =   0.09000, gbalpha=    1.09511
     gbbeta  =   1.90793, gbgamma =   2.50798, surften =   0.00500
     rdt     =   0.00000, rgbmax  =  25.00000  extdiel =  78.50000
     alpb  =        0

Frozen or restrained atoms:
     ibelly  =       0, ntr     =       0

Molecular dynamics:
     nstlim  =     10000, nscm    =      1000, nrespa  =         1
     t       =   0.00000, dt      =   0.00200, vlimit  =  20.00000

Langevin dynamics temperature regulation:
     ig      =   71277
     temp0   = 300.00000, tempi   =   0.00000, gamma_ln=   1.00000

SHAKE:
     ntc     =       2, jfastw  =       0
     tol     =   0.00001

QMMM options:
             ifqnt = True       nquant =       37
              qmgb =        2  qmcharge =        0   adjust_q =        2
              spin =        1     qmcut =  20.0000    qmshake =        1
          qmmm_int =        1
     lnk_atomic_no =        1   lnk_dis =   1.0900 lnk_method =        1
          qm_theory =     RM1 verbosity =        0
            qmqmdx = Analytical
      tight_p_conv = False (converge density to 0.05xSqrt[SCFCRT])
           scfconv = 0.100E-07  itrmax =     1000
      printcharges = False      printdipole = False      peptide_corr = False
    qmmmrij_incore = True
  qmqm_erep_incore = True
       pseudo_diag = True pseudo_diag_criteria =   0.0500
      diag_routine =        0
          qm_ewald =        0 qm_pme = False

--------------------------------------------------------------------------------
   3.  ATOMIC COORDINATES AND VELOCITIES
--------------------------------------------------------------------------------

default_name
 begin time read from input coords =     0.000 ps

 Number of triangulated 3-point waters found:        0
QMMM: ADJUSTING CHARGES
QMMM: ----------------------------------------------------------------------
QMMM: adjust_q = 2
QMMM: Uniformly adjusting the charge of MM atoms to conserve total charge.
QMMM:                             qm_charge =    0
QMMM: QM atom RESP charge sum (inc MM link) =    0.001
QMMM: Adjusting each MM atom resp charge by =    0.000
QMMM:          Sum of MM + QM region is now =   -2.999
QMMM: ----------------------------------------------------------------------

QMMM: Link Atom Information
QMMM: ------------------------------------------------------------------------
QMMM: nlink =     0
QMMM: ------------------------------------------------------------------------

  QMMM: QM Region Cartesian Coordinates (*=link atom)
  QMMM: QM_NO.   MM_NO.  ATOM         X         Y         Z
  QMMM:     1     4647      O        9.3070    1.2705   20.9357
  QMMM:     2     4648      C        8.7327    0.7085   21.8558
  QMMM:     3     4649      C        9.3584    0.3442   23.1947
  QMMM:     4     4650      C       10.8576    0.1141   23.0312
  QMMM:     5     4651      C       11.1314   -1.0772   22.1035
  QMMM:     6     4652      C       12.3628   -1.8810   22.5214
  QMMM:     7     4653      C       13.4676   -0.9991   23.0827
  QMMM:     8     4654      C       13.0055   -0.1538   24.2655
  QMMM:     9     4655      C       11.4873   -0.1365   24.4036
  QMMM:    10     4656      N        7.3558    0.4260   21.7372
  QMMM:    11     4657      C        6.6480    0.6938   20.5653
  QMMM:    12     4658      C        5.3523    1.2960   20.6897
  QMMM:    13     4659      N        4.5868    1.4755   19.4934
  QMMM:    14     4660      C        5.1176    1.1485   18.2441
  QMMM:    15     4661      N        6.3240    0.6373   18.1135
  QMMM:    16     4662      C        7.0680    0.4027   19.2878
  QMMM:    17     4663      H        8.8839   -0.5470   23.6526
  QMMM:    18     4664      H        9.1532    1.1833   23.8878
  QMMM:    19     4665      H       11.3346    1.0351   22.5942
  QMMM:    20     4666      H       10.2591   -1.7610   22.0574
  QMMM:    21     4667      H       11.2293   -0.7129   21.0617
  QMMM:    22     4668      H       12.7444   -2.4450   21.6465
  QMMM:    23     4669      H       12.0824   -2.6569   23.2627
  QMMM:    24     4670      H       14.3299   -1.6373   23.3760
  QMMM:    25     4671      H       13.8736   -0.3532   22.2772
  QMMM:    26     4672      H       13.4738   -0.5279   25.1999
  QMMM:    27     4673      H       13.3834    0.8837   24.1513
  QMMM:    28     4674      H       11.1767    0.6447   25.1302
  QMMM:    29     4675      H       11.1082   -1.0864   24.8400
  QMMM:    30     4676      H        6.8134    0.0622   22.5341
  QMMM:    31     4677      C        4.5838    1.7739   21.7305
  QMMM:    32     4678      N        3.3625    2.0410   19.7805
  QMMM:    33     4679      H        4.5038    1.3220   17.3370
  QMMM:    34     4680      F        8.2620   -0.1134   19.0454
  QMMM:    35     4681      C        3.3587    2.2238   21.1250
  QMMM:    36     4682      H        2.4817    2.6724   21.6429
  QMMM:    37     4683      H        4.8118    1.7859   22.7934

--------------------------------------------------------------------------------
  3.1 QM CALCULATION INFO
--------------------------------------------------------------------------------

QMMM: SINGLET STATE CALCULATION
QMMM: RHF CALCULATION, NO. OF DOUBLY OCCUPIED LEVELS = 53

--------------------------------------------------------------------------------
   4.  RESULTS
 NSTEP =        0   TIME(PS) =       0.000  TEMP(K) =     0.00  PRESS =     0.0
 Etot   =    -11997.2448  EKtot   =         0.0000  EPtot      =    -11997.2448
 BOND   =       143.1872  ANGLE   =       552.1693  DIHED      =      1196.7924
 1-4 NB =       948.4168  1-4 EEL =     12143.1100  VDWAALS    =     -2641.1649
 EELEC  =    -21562.6657  EGB     =     -2953.7033  RESTRAINT  =         0.0000
 RM1ESCF=       -40.9567
 CMAP   =       217.5702
 ------------------------------------------------------------------------------

      A V E R A G E S   O V E R   10000 S T E P S

 NSTEP =    10000   TIME(PS) =      20.000  TEMP(K) =   286.21  PRESS =     0.0
 Etot   =     -5193.0652  EKtot   =      3336.9268  EPtot      =     -8529.9920
 BOND   =       887.3830  ANGLE   =      2285.1645  DIHED      =      1661.4559
 1-4 NB =      1046.3553  1-4 EEL =     12024.6006  VDWAALS    =     -2371.5389
 EELEC  =    -20946.4747  EGB     =     -3328.6505  RESTRAINT  =         0.0000
 RM1ESCF=        -9.4650
 CMAP   =       221.1778
 ------------------------------------------------------------------------------

      R M S  F L U C T U A T I O N S

 NSTEP =    10000   TIME(PS) =      20.000  TEMP(K) =    44.68  PRESS =     0.0
 Etot   =      1073.8103  EKtot   =       520.9617  EPtot      =       554.8053
 BOND   =       119.3045  ANGLE   =       275.4071  DIHED      =        78.7934
 1-4 NB =        20.2914  1-4 EEL =        40.7543  VDWAALS    =        52.9362
 EELEC  =       145.0092  EGB     =       116.2392  RESTRAINT  =         0.0000
 RM1ESCF=         7.6386
 CMAP   =         8.8187
 ------------------------------------------------------------------------------
