-------------------------------------------------------
          Amber 18 SANDER                              2018
          -------------------------------------------------------

  [-O]verwriting output

File Assignments:

 Here is the input file:

MD with GB7
 &cntrl
  nstlim = 10000, dt = 0.002,
  ntwr = 5000, ntwx = 500,
  ntc = 2, ntf = 2,
  ntt = 3, temp0 = 300, gamma_ln = 1.0,
  ntb = 0, igb = 7, cut = 9999.0,
  ifqnt = 1,
 /

 &qmmm
  qmmask = ':305', qmcharge = 0,
  qm_theory = 'RM1', qmcut = 20.0,
 /

--------------------------------------------------------------------------------
   1.  RESOURCE   USE:
--------------------------------------------------------------------------------

 NATOM  =    4683 NTYPES =      25 NBONH =    2315 MBONA  =    2422
 NTHETH =    5236 MTHETA =    3293 NPHIH =   10791 MPHIA  =   10514
 NHPARM =       0 NPARM  =       0 NNB   =   25792 NRES   =     305
 NBONA  =    2422 NTHETA =    3293 NPHIA =   10514 NUMBND =      89
 NUMANG =     207 NPTRA  =     218 NATYP =      47 NPHB   =       0
 IFBOX  =       0 NMXRS  =      37 IFCAP =       0 NEXTRA =       0
 NCOPY  =       0

 Implicit solvent radii are ArgH and AspGluO modified Bondi2 radii (mbondi3)
 Replacing prmtop screening parameters with GBn (igb=7) values

LOADING THE QUANTUM ATOMS AS GROUPS
     Mask :305; matches    37 atoms

--------------------------------------------------------------------------------
   2.  CONTROL  DATA  FOR  THE  RUN
--------------------------------------------------------------------------------

default_name

General flags:
     imin    =       0, nmropt  =       0

Nature and format of input:
     ntx     =       1, irest   =       0, ntrx    =       1

Nature and format of output:
     ntxo    =       2, ntpr    =      50, ntrx    =       1, ntwr    =    5000
     iwrap   =       0, ntwx    =     500, ntwv    =       0, ntwe    =       0
     ioutfm  =       1, ntwprt  =       0, idecomp =       0, rbornstat=      0

Potential function:
     ntf     =       2, ntb     =       0, igb     =       7, nsnb    =      25
     ipol    =       0, gbsa    =       0, iesp    =       0
     dielc   =   1.00000, cut     =9999.00000, intdiel =   1.00000
     saltcon =   0.00000, offset  =   0.09000, gbalpha=    1.09511
     gbbeta  =   1.90793, gbgamma =   2.50798, surften =   0.00500
     rdt     =   0.00000, rgbmax  =  25.00000  extdiel =  78.50000
     alpb  =        0

Frozen or restrained atoms:
     ibelly  =       0, ntr     =       0

Molecular dynamics:
     nstlim  =     10000, nscm    =      1000, nrespa  =         1
     t       =   0.00000, dt      =   0.00200, vlimit  =  20.00000

Langevin dynamics temperature regulation:
     ig      =   71277
     temp0   = 300.00000, tempi   =   0.00000, gamma_ln=   1.00000

SHAKE:
     ntc     =       2, jfastw  =       0
     tol     =   0.00001

QMMM options:
             ifqnt = True       nquant =       37
              qmgb =        2  qmcharge =        0   adjust_q =        2
              spin =        1     qmcut =  20.0000    qmshake =        1
          qmmm_int =        1
     lnk_atomic_no =        1   lnk_dis =   1.0900 lnk_method =        1
          qm_theory =     RM1 verbosity =        0
            qmqmdx = Analytical
      tight_p_conv = False (converge density to 0.05xSqrt[SCFCRT])
           scfconv = 0.100E-07  itrmax =     1000
      printcharges = False      printdipole = False      peptide_corr = False
    qmmmrij_incore = True
  qmqm_erep_incore = True
       pseudo_diag = True pseudo_diag_criteria =   0.0500
      diag_routine =        0
          qm_ewald =        0 qm_pme = False

--------------------------------------------------------------------------------
   3.  ATOMIC COORDINATES AND VELOCITIES
--------------------------------------------------------------------------------

default_name
 begin time read from input coords =     0.000 ps

 Number of triangulated 3-point waters found:        0
QMMM: ADJUSTING CHARGES
QMMM: ----------------------------------------------------------------------
QMMM: adjust_q = 2
QMMM: Uniformly adjusting the charge of MM atoms to conserve total charge.
QMMM:                             qm_charge =    0
QMMM: QM atom RESP charge sum (inc MM link) =    0.000
QMMM: Adjusting each MM atom resp charge by =    0.000
QMMM:          Sum of MM + QM region is now =   -3.000
QMMM: ----------------------------------------------------------------------

QMMM: Link Atom Information
QMMM: ------------------------------------------------------------------------
QMMM: nlink =     0
QMMM: ------------------------------------------------------------------------

  QMMM: QM Region Cartesian Coordinates (*=link atom)
  QMMM: QM_NO.   MM_NO.  ATOM         X         Y         Z
  QMMM:     1     4647      O        9.2864    1.3366   20.9665
  QMMM:     2     4648      C        8.7354    0.6946   21.8575
  QMMM:     3     4649      C        9.3639    0.3040   23.1758
  QMMM:     4     4650      C       10.8756    0.1152   23.0194
  QMMM:     5     4651      C       11.1786   -1.0455   22.0675
  QMMM:     6     4652      C       12.3882   -1.8693   22.5007
  QMMM:     7     4653      C       13.4974   -1.0183   23.0942
  QMMM:     8     4654      C       13.0153   -0.1474   24.2522
  QMMM:     9     4655      C       11.4976   -0.1523   24.3895
  QMMM:    10     4656      N        7.3872    0.3283   21.7006
  QMMM:    11     4657      C        6.6853    0.6283   20.5253
  QMMM:    12     4658      N        5.4297    1.2533   20.6291
  QMMM:    13     4659      C        4.6208    1.4507   19.4727
  QMMM:    14     4660      C        5.1768    1.1151   18.1937
  QMMM:    15     4661      N        6.3786    0.5975   18.0566
  QMMM:    16     4662      C        7.1042    0.3469   19.2346
  QMMM:    17     4663      H        8.9095   -0.6161   23.6035
  QMMM:    18     4664      H        9.1345    1.1141   23.9065
  QMMM:    19     4665      H       11.3246    1.0566   22.6049
  QMMM:    20     4666      H       10.3080   -1.7291   21.9535
  QMMM:    21     4667      H       11.3208   -0.6470   21.0452
  QMMM:    22     4668      H       12.7820   -2.4309   21.6279
  QMMM:    23     4669      H       12.0831   -2.6546   23.2241
  QMMM:    24     4670      H       14.3241   -1.6776   23.4323
  QMMM:    25     4671      H       13.9516   -0.3915   22.3036
  QMMM:    26     4672      H       13.4883   -0.4783   25.1988
  QMMM:    27     4673      H       13.3719    0.8949   24.1097
  QMMM:    28     4674      H       11.1710    0.6090   25.1295
  QMMM:    29     4675      H       11.1356   -1.1149   24.8094
  QMMM:    30     4676      H        6.8787   -0.1850   22.4284
  QMMM:    31     4677      C        4.6977    1.6761   21.7328
  QMMM:    32     4678      N        3.4148    1.9667   19.8376
  QMMM:    33     4679      H        4.5958    1.3019   17.2821
  QMMM:    34     4680      F        8.2807   -0.2127   19.0149
  QMMM:    35     4681      C        3.4627    2.1017   21.2184
  QMMM:    36     4682      H        2.6097    2.5014   21.7795
  QMMM:    37     4683      H        5.0532    1.6457   22.7681

--------------------------------------------------------------------------------
  3.1 QM CALCULATION INFO
--------------------------------------------------------------------------------

QMMM: SINGLET STATE CALCULATION
QMMM: RHF CALCULATION, NO. OF DOUBLY OCCUPIED LEVELS = 53

--------------------------------------------------------------------------------
   4.  RESULTS
 NSTEP =        0   TIME(PS) =       0.000  TEMP(K) =     0.00  PRESS =     0.0
 Etot   =    -11996.6233  EKtot   =         0.0000  EPtot      =    -11996.6233
 BOND   =       142.9914  ANGLE   =       552.3934  DIHED      =      1201.8053
 1-4 NB =       950.5169  1-4 EEL =     12144.7642  VDWAALS    =     -2642.4233
 EELEC  =    -21563.1942  EGB     =     -2951.6312  RESTRAINT  =         0.0000
 RM1ESCF=       -51.2392
 CMAP   =       219.3933
 ------------------------------------------------------------------------------

      A V E R A G E S   O V E R   10000 S T E P S

 NSTEP =    10000   TIME(PS) =      20.000  TEMP(K) =   286.75  PRESS =     0.0
 Etot   =     -5188.1521  EKtot   =      3343.1617  EPtot      =     -8531.3138
 BOND   =       885.5616  ANGLE   =      2287.6985  DIHED      =      1668.0472
 1-4 NB =      1045.8920  1-4 EEL =     12039.0694  VDWAALS    =     -2369.1069
 EELEC  =    -20947.6439  EGB     =     -3345.7320  RESTRAINT  =         0.0000
 RM1ESCF=       -17.2838
 CMAP   =       222.1843
 ------------------------------------------------------------------------------

      R M S  F L U C T U A T I O N S

 NSTEP =    10000   TIME(PS) =      20.000  TEMP(K) =    44.72  PRESS =     0.0
 Etot   =      1075.4450  EKtot   =       521.4135  EPtot      =       556.0018
 BOND   =       118.6339  ANGLE   =       275.3489  DIHED      =        80.9947
 1-4 NB =        20.7871  1-4 EEL =        40.0879  VDWAALS    =        54.0281
 EELEC  =       144.2995  EGB     =       114.5862  RESTRAINT  =         0.0000
 RM1ESCF=         8.4818
 CMAP   =         8.3879
 ------------------------------------------------------------------------------
