-------------------------------------------------------
          Amber 18 SANDER                              2018
          -------------------------------------------------------

  [-O]verwriting output

File Assignments:

 Here is the input file:

MD with GB7
 &cntrl
  nstlim = 10000, dt = 0.002,
  ntwr = 5000, ntwx = 500,
  ntc = 2, ntf = 2,
  ntt = 3, temp0 = 300, gamma_ln = 1.0,
  ntb = 0, igb = 7, cut = 9999.0,
  ifqnt = 1,
 /

 &qmmm
  qmmask = ':305', qmcharge = 0,
  qm_theory = 'RM1', qmcut = 20.0,
 /

--------------------------------------------------------------------------------
   1.  RESOURCE   USE:
--------------------------------------------------------------------------------

 NATOM  =    4684 NTYPES =      26 NBONH =    2316 MBONA  =    2422
 NTHETH =    5238 MTHETA =    3293 NPHIH =   10796 MPHIA  =   10515
 NHPARM =       0 NPARM  =       0 NNB   =   25800 NRES   =     305
 NBONA  =    2422 NTHETA =    3293 NPHIA =   10515 NUMBND =      92
 NUMANG =     209 NPTRA  =     223 NATYP =      49 NPHB   =       0
 IFBOX  =       0 NMXRS  =      38 IFCAP =       0 NEXTRA =       0
 NCOPY  =       0

 Implicit solvent radii are ArgH and AspGluO modified Bondi2 radii (mbondi3)
 Replacing prmtop screening parameters with GBn (igb=7) values

LOADING THE QUANTUM ATOMS AS GROUPS
     Mask :305; matches    38 atoms

--------------------------------------------------------------------------------
   2.  CONTROL  DATA  FOR  THE  RUN
--------------------------------------------------------------------------------

default_name

General flags:
     imin    =       0, nmropt  =       0

Nature and format of input:
     ntx     =       1, irest   =       0, ntrx    =       1

Nature and format of output:
     ntxo    =       2, ntpr    =      50, ntrx    =       1, ntwr    =    5000
     iwrap   =       0, ntwx    =     500, ntwv    =       0, ntwe    =       0
     ioutfm  =       1, ntwprt  =       0, idecomp =       0, rbornstat=      0

Potential function:
     ntf     =       2, ntb     =       0, igb     =       7, nsnb    =      25
     ipol    =       0, gbsa    =       0, iesp    =       0
     dielc   =   1.00000, cut     =9999.00000, intdiel =   1.00000
     saltcon =   0.00000, offset  =   0.09000, gbalpha=    1.09511
     gbbeta  =   1.90793, gbgamma =   2.50798, surften =   0.00500
     rdt     =   0.00000, rgbmax  =  25.00000  extdiel =  78.50000
     alpb  =        0

Frozen or restrained atoms:
     ibelly  =       0, ntr     =       0

Molecular dynamics:
     nstlim  =     10000, nscm    =      1000, nrespa  =         1
     t       =   0.00000, dt      =   0.00200, vlimit  =  20.00000

Langevin dynamics temperature regulation:
     ig      =   71277
     temp0   = 300.00000, tempi   =   0.00000, gamma_ln=   1.00000

SHAKE:
     ntc     =       2, jfastw  =       0
     tol     =   0.00001

QMMM options:
             ifqnt = True       nquant =       38
              qmgb =        2  qmcharge =        0   adjust_q =        2
              spin =        1     qmcut =  20.0000    qmshake =        1
          qmmm_int =        1
     lnk_atomic_no =        1   lnk_dis =   1.0900 lnk_method =        1
          qm_theory =     RM1 verbosity =        0
            qmqmdx = Analytical
      tight_p_conv = False (converge density to 0.05xSqrt[SCFCRT])
           scfconv = 0.100E-07  itrmax =     1000
      printcharges = False      printdipole = False      peptide_corr = False
    qmmmrij_incore = True
  qmqm_erep_incore = True
       pseudo_diag = True pseudo_diag_criteria =   0.0500
      diag_routine =        0
          qm_ewald =        0 qm_pme = False

--------------------------------------------------------------------------------
   3.  ATOMIC COORDINATES AND VELOCITIES
--------------------------------------------------------------------------------

default_name
 begin time read from input coords =     0.000 ps

 Number of triangulated 3-point waters found:        0
QMMM: ADJUSTING CHARGES
QMMM: ----------------------------------------------------------------------
QMMM: adjust_q = 2
QMMM: Uniformly adjusting the charge of MM atoms to conserve total charge.
QMMM:                             qm_charge =    0
QMMM: QM atom RESP charge sum (inc MM link) =   -0.001
QMMM: Adjusting each MM atom resp charge by =   -0.000
QMMM:          Sum of MM + QM region is now =   -3.001
QMMM: ----------------------------------------------------------------------

QMMM: Link Atom Information
QMMM: ------------------------------------------------------------------------
QMMM: nlink =     0
QMMM: ------------------------------------------------------------------------

  QMMM: QM Region Cartesian Coordinates (*=link atom)
  QMMM: QM_NO.   MM_NO.  ATOM         X         Y         Z
  QMMM:     1     4647      O        9.2070    1.2703   20.9423
  QMMM:     2     4648      C        8.6176    0.6324   21.8229
  QMMM:     3     4649      C        9.2317    0.2235   23.1426
  QMMM:     4     4650      C       10.7570    0.1098   23.0224
  QMMM:     5     4651      C       11.1380   -1.0019   22.0420
  QMMM:     6     4652      C       12.3332   -1.8256   22.5080
  QMMM:     7     4653      C       13.4196   -0.9740   23.1432
  QMMM:     8     4654      C       12.8909   -0.0933   24.2731
  QMMM:     9     4655      C       11.3712   -0.1492   24.3982
  QMMM:    10     4656      N        7.2711    0.3011   21.6301
  QMMM:    11     4657      C        6.6067    0.6225   20.4392
  QMMM:    12     4658      C        5.3631    1.2842   20.4503
  QMMM:    13     4659      C        4.7612    1.6204   19.1986
  QMMM:    14     4660      C        5.3769    1.2742   17.9918
  QMMM:    15     4661      N        6.5409    0.6292   17.9635
  QMMM:    16     4662      C        7.1196    0.3208   19.1746
  QMMM:    17     4663      H        8.8082   -0.7343   23.5219
  QMMM:    18     4664      H        8.9446    0.9858   23.9029
  QMMM:    19     4665      H       11.1603    1.0833   22.6419
  QMMM:    20     4666      H       10.2885   -1.6929   21.8492
  QMMM:    21     4667      H       11.3335   -0.5559   21.0481
  QMMM:    22     4668      H       12.7576   -2.3802   21.6449
  QMMM:    23     4669      H       12.0102   -2.6184   23.2144
  QMMM:    24     4670      H       14.2369   -1.6330   23.5099
  QMMM:    25     4671      H       13.9067   -0.3527   22.3660
  QMMM:    26     4672      H       13.3689   -0.3903   25.2267
  QMMM:    27     4673      H       13.2164    0.9589   24.1151
  QMMM:    28     4674      H       11.0148    0.5986   25.1375
  QMMM:    29     4675      H       11.0340   -1.1246   24.8056
  QMMM:    30     4676      H        6.7029   -0.1297   22.3709
  QMMM:    31     4677      C        4.4977    1.7524   21.4770
  QMMM:    32     4678      N        3.5616    2.2716   19.4684
  QMMM:    33     4679      H        4.9442    1.5466   17.0182
  QMMM:    34     4680      F        8.2861   -0.2950   19.0462
  QMMM:    35     4681      C        3.4196    2.3634   20.8534
  QMMM:    36     4682      H        2.5516    2.8443   21.3122
  QMMM:    37     4683      H        4.6691    1.6357   22.5467
  QMMM:    38     4684      H        3.0254    2.7736   18.7633

--------------------------------------------------------------------------------
  3.1 QM CALCULATION INFO
--------------------------------------------------------------------------------

QMMM: SINGLET STATE CALCULATION
QMMM: RHF CALCULATION, NO. OF DOUBLY OCCUPIED LEVELS = 53

--------------------------------------------------------------------------------
   4.  RESULTS
 NSTEP =        0   TIME(PS) =       0.000  TEMP(K) =     0.00  PRESS =     0.0
 Etot   =    -12025.6744  EKtot   =         0.0000  EPtot      =    -12025.6744
 BOND   =       143.5571  ANGLE   =       551.6199  DIHED      =      1199.7070
 1-4 NB =       950.2557  1-4 EEL =     12146.9913  VDWAALS    =     -2643.0405
 EELEC  =    -21566.2333  EGB     =     -2942.9878  RESTRAINT  =         0.0000
 RM1ESCF=       -84.5744
 CMAP   =       219.0306
 ------------------------------------------------------------------------------

      A V E R A G E S   O V E R   10000 S T E P S

 NSTEP =    10000   TIME(PS) =      20.000  TEMP(K) =   286.37  PRESS =     0.0
 Etot   =     -5221.5393  EKtot   =      3339.3107  EPtot      =     -8560.8500
 BOND   =       884.3739  ANGLE   =      2287.4712  DIHED      =      1667.5040
 1-4 NB =      1045.5836  1-4 EEL =     12029.5431  VDWAALS    =     -2372.8588
 EELEC  =    -20920.2815  EGB     =     -3365.1475  RESTRAINT  =         0.0000
 RM1ESCF=       -44.6257
 CMAP   =       227.5877
 ------------------------------------------------------------------------------

      R M S  F L U C T U A T I O N S

 NSTEP =    10000   TIME(PS) =      20.000  TEMP(K) =    44.86  PRESS =     0.0
 Etot   =      1078.3131  EKtot   =       523.0629  EPtot      =       557.3103
 BOND   =       119.8065  ANGLE   =       276.6206  DIHED      =        81.4024
 1-4 NB =        20.1300  1-4 EEL =        42.2278  VDWAALS    =        52.7757
 EELEC  =       139.1212  EGB     =       111.9240  RESTRAINT  =         0.0000
 RM1ESCF=        10.5946
 CMAP   =         8.8614
 ------------------------------------------------------------------------------
