-------------------------------------------------------
          Amber 18 SANDER                              2018
          -------------------------------------------------------

  [-O]verwriting output

File Assignments:

 Here is the input file:

MD with GB7
 &cntrl
  nstlim = 10000, dt = 0.002,
  ntwr = 5000, ntwx = 500,
  ntc = 2, ntf = 2,
  ntt = 3, temp0 = 300, gamma_ln = 1.0,
  ntb = 0, igb = 7, cut = 9999.0,
  ifqnt = 1,
 /

 &qmmm
  qmmask = ':305', qmcharge = 0,
  qm_theory = 'RM1', qmcut = 20.0,
 /

--------------------------------------------------------------------------------
   1.  RESOURCE   USE:
--------------------------------------------------------------------------------

 NATOM  =    4680 NTYPES =      25 NBONH =    2315 MBONA  =    2418
 NTHETH =    5236 MTHETA =    3286 NPHIH =   10791 MPHIA  =   10501
 NHPARM =       0 NPARM  =       0 NNB   =   25773 NRES   =     305
 NBONA  =    2418 NTHETA =    3286 NPHIA =   10501 NUMBND =      86
 NUMANG =     199 NPTRA  =     218 NATYP =      46 NPHB   =       0
 IFBOX  =       0 NMXRS  =      34 IFCAP =       0 NEXTRA =       0
 NCOPY  =       0

 Implicit solvent radii are ArgH and AspGluO modified Bondi2 radii (mbondi3)
 Replacing prmtop screening parameters with GBn (igb=7) values

LOADING THE QUANTUM ATOMS AS GROUPS
     Mask :305; matches    34 atoms

--------------------------------------------------------------------------------
   2.  CONTROL  DATA  FOR  THE  RUN
--------------------------------------------------------------------------------

default_name

General flags:
     imin    =       0, nmropt  =       0

Nature and format of input:
     ntx     =       1, irest   =       0, ntrx    =       1

Nature and format of output:
     ntxo    =       2, ntpr    =      50, ntrx    =       1, ntwr    =    5000
     iwrap   =       0, ntwx    =     500, ntwv    =       0, ntwe    =       0
     ioutfm  =       1, ntwprt  =       0, idecomp =       0, rbornstat=      0

Potential function:
     ntf     =       2, ntb     =       0, igb     =       7, nsnb    =      25
     ipol    =       0, gbsa    =       0, iesp    =       0
     dielc   =   1.00000, cut     =9999.00000, intdiel =   1.00000
     saltcon =   0.00000, offset  =   0.09000, gbalpha=    1.09511
     gbbeta  =   1.90793, gbgamma =   2.50798, surften =   0.00500
     rdt     =   0.00000, rgbmax  =  25.00000  extdiel =  78.50000
     alpb  =        0

Frozen or restrained atoms:
     ibelly  =       0, ntr     =       0

Molecular dynamics:
     nstlim  =     10000, nscm    =      1000, nrespa  =         1
     t       =   0.00000, dt      =   0.00200, vlimit  =  20.00000

Langevin dynamics temperature regulation:
     ig      =   71277
     temp0   = 300.00000, tempi   =   0.00000, gamma_ln=   1.00000

SHAKE:
     ntc     =       2, jfastw  =       0
     tol     =   0.00001

QMMM options:
             ifqnt = True       nquant =       34
              qmgb =        2  qmcharge =        0   adjust_q =        2
              spin =        1     qmcut =  20.0000    qmshake =        1
          qmmm_int =        1
     lnk_atomic_no =        1   lnk_dis =   1.0900 lnk_method =        1
          qm_theory =     RM1 verbosity =        0
            qmqmdx = Analytical
      tight_p_conv = False (converge density to 0.05xSqrt[SCFCRT])
           scfconv = 0.100E-07  itrmax =     1000
      printcharges = False      printdipole = False      peptide_corr = False
    qmmmrij_incore = True
  qmqm_erep_incore = True
       pseudo_diag = True pseudo_diag_criteria =   0.0500
      diag_routine =        0
          qm_ewald =        0 qm_pme = False

--------------------------------------------------------------------------------
   3.  ATOMIC COORDINATES AND VELOCITIES
--------------------------------------------------------------------------------

default_name
 begin time read from input coords =     0.000 ps

 Number of triangulated 3-point waters found:        0
QMMM: ADJUSTING CHARGES
QMMM: ----------------------------------------------------------------------
QMMM: adjust_q = 2
QMMM: Uniformly adjusting the charge of MM atoms to conserve total charge.
QMMM:                             qm_charge =    0
QMMM: QM atom RESP charge sum (inc MM link) =    0.001
QMMM: Adjusting each MM atom resp charge by =    0.000
QMMM:          Sum of MM + QM region is now =   -2.999
QMMM: ----------------------------------------------------------------------

QMMM: Link Atom Information
QMMM: ------------------------------------------------------------------------
QMMM: nlink =     0
QMMM: ------------------------------------------------------------------------

  QMMM: QM Region Cartesian Coordinates (*=link atom)
  QMMM: QM_NO.   MM_NO.  ATOM         X         Y         Z
  QMMM:     1     4647      O        9.1897    1.2570   20.9576
  QMMM:     2     4648      C        8.6357    0.5995   21.8411
  QMMM:     3     4649      C        9.2771    0.2243   23.1617
  QMMM:     4     4650      C       10.7982    0.1029   23.0170
  QMMM:     5     4651      C       11.1557   -1.0359   22.0599
  QMMM:     6     4652      C       12.3620   -1.8465   22.5185
  QMMM:     7     4653      C       13.4555   -0.9794   23.1225
  QMMM:     8     4654      C       12.9439   -0.0847   24.2503
  QMMM:     9     4655      C       11.4274   -0.1335   24.3896
  QMMM:    10     4656      N        7.3050    0.2135   21.6743
  QMMM:    11     4657      C        6.5855    0.5232   20.5035
  QMMM:    12     4658      C        5.2929    1.0588   20.5772
  QMMM:    13     4659      C        4.6103    1.3340   19.4013
  QMMM:    14     4660      C        5.2252    1.0694   18.1735
  QMMM:    15     4661      N        6.4648    0.5531   18.0481
  QMMM:    16     4662      C        7.1171    0.2900   19.2175
  QMMM:    17     4663      H        8.8577   -0.7200   23.5798
  QMMM:    18     4664      H        9.0090    1.0132   23.9016
  QMMM:    19     4665      H       11.2009    1.0664   22.6078
  QMMM:    20     4666      H       10.3025   -1.7293   21.9001
  QMMM:    21     4667      H       11.3267   -0.6181   21.0506
  QMMM:    22     4668      H       12.7750   -2.4140   21.6592
  QMMM:    23     4669      H       12.0506   -2.6273   23.2435
  QMMM:    24     4670      H       14.2766   -1.6320   23.4935
  QMMM:    25     4671      H       13.9308   -0.3691   22.3276
  QMMM:    26     4672      H       13.4281   -0.3692   25.2060
  QMMM:    27     4673      H       13.2694    0.9624   24.0728
  QMMM:    28     4674      H       11.0806    0.6260   25.1193
  QMMM:    29     4675      H       11.0926   -1.1007   24.8161
  QMMM:    30     4676      H        6.7806   -0.2458   22.4244
  QMMM:    31     4677      H        4.8233    1.2620   21.5521
  QMMM:    32     4678      H        3.6121    1.7856   19.4324
  QMMM:    33     4679      H        4.7284    1.2865   17.2206
  QMMM:    34     4680      F        8.3284   -0.2103   19.0574

--------------------------------------------------------------------------------
  3.1 QM CALCULATION INFO
--------------------------------------------------------------------------------

QMMM: SINGLET STATE CALCULATION
QMMM: RHF CALCULATION, NO. OF DOUBLY OCCUPIED LEVELS = 46

--------------------------------------------------------------------------------
   4.  RESULTS
 NSTEP =        0   TIME(PS) =       0.000  TEMP(K) =     0.00  PRESS =     0.0
 Etot   =    -12024.1719  EKtot   =         0.0000  EPtot      =    -12024.1719
 BOND   =       141.8989  ANGLE   =       551.0166  DIHED      =      1201.2750
 1-4 NB =       951.7574  1-4 EEL =     12148.8643  VDWAALS    =     -2638.2584
 EELEC  =    -21567.7780  EGB     =     -2937.1894  RESTRAINT  =         0.0000
 RM1ESCF=       -96.2457
 CMAP   =       220.4873
 ------------------------------------------------------------------------------

      A V E R A G E S   O V E R   10000 S T E P S

 NSTEP =    10000   TIME(PS) =      20.000  TEMP(K) =   285.29  PRESS =     0.0
 Etot   =     -5265.6887  EKtot   =      3323.6572  EPtot      =     -8589.3459
 BOND   =       887.2093  ANGLE   =      2280.1865  DIHED      =      1654.9445
 1-4 NB =      1044.6095  1-4 EEL =     11999.1013  VDWAALS    =     -2373.5944
 EELEC  =    -20947.9713  EGB     =     -3292.1367  RESTRAINT  =         0.0000
 RM1ESCF=       -62.2779
 CMAP   =       220.5833
 ------------------------------------------------------------------------------

      R M S  F L U C T U A T I O N S

 NSTEP =    10000   TIME(PS) =      20.000  TEMP(K) =    44.95  PRESS =     0.0
 Etot   =      1079.0011  EKtot   =       523.7118  EPtot      =       557.2347
 BOND   =       121.3715  ANGLE   =       275.8849  DIHED      =        77.8945
 1-4 NB =        19.9911  1-4 EEL =        44.3896  VDWAALS    =        52.6972
 EELEC  =       137.8635  EGB     =        95.4042  RESTRAINT  =         0.0000
 RM1ESCF=         9.1658
 CMAP   =         8.1301
 ------------------------------------------------------------------------------
