-------------------------------------------------------
          Amber 18 SANDER                              2018
          -------------------------------------------------------

  [-O]verwriting output

File Assignments:

 Here is the input file:

MD with GB7
 &cntrl
  nstlim = 10000, dt = 0.002,
  ntwr = 5000, ntwx = 500,
  ntc = 2, ntf = 2,
  ntt = 3, temp0 = 300, gamma_ln = 1.0,
  ntb = 0, igb = 7, cut = 9999.0,
  ifqnt = 1,
 /

 &qmmm
  qmmask = ':305', qmcharge = 0,
  qm_theory = 'RM1', qmcut = 20.0,
 /

--------------------------------------------------------------------------------
   1.  RESOURCE   USE:
--------------------------------------------------------------------------------

 NATOM  =    4675 NTYPES =      24 NBONH =    2309 MBONA  =    2419
 NTHETH =    5216 MTHETA =    3288 NPHIH =   10761 MPHIA  =   10488
 NHPARM =       0 NPARM  =       0 NNB   =   25719 NRES   =     305
 NBONA  =    2419 NTHETA =    3288 NPHIA =   10488 NUMBND =      85
 NUMANG =     196 NPTRA  =     205 NATYP =      45 NPHB   =       0
 IFBOX  =       0 NMXRS  =      29 IFCAP =       0 NEXTRA =       0
 NCOPY  =       0

 Implicit solvent radii are ArgH and AspGluO modified Bondi2 radii (mbondi3)
 Replacing prmtop screening parameters with GBn (igb=7) values

LOADING THE QUANTUM ATOMS AS GROUPS
     Mask :305; matches    29 atoms

--------------------------------------------------------------------------------
   2.  CONTROL  DATA  FOR  THE  RUN
--------------------------------------------------------------------------------

default_name

General flags:
     imin    =       0, nmropt  =       0

Nature and format of input:
     ntx     =       1, irest   =       0, ntrx    =       1

Nature and format of output:
     ntxo    =       2, ntpr    =      50, ntrx    =       1, ntwr    =    5000
     iwrap   =       0, ntwx    =     500, ntwv    =       0, ntwe    =       0
     ioutfm  =       1, ntwprt  =       0, idecomp =       0, rbornstat=      0

Potential function:
     ntf     =       2, ntb     =       0, igb     =       7, nsnb    =      25
     ipol    =       0, gbsa    =       0, iesp    =       0
     dielc   =   1.00000, cut     =9999.00000, intdiel =   1.00000
     saltcon =   0.00000, offset  =   0.09000, gbalpha=    1.09511
     gbbeta  =   1.90793, gbgamma =   2.50798, surften =   0.00500
     rdt     =   0.00000, rgbmax  =  25.00000  extdiel =  78.50000
     alpb  =        0

Frozen or restrained atoms:
     ibelly  =       0, ntr     =       0

Molecular dynamics:
     nstlim  =     10000, nscm    =      1000, nrespa  =         1
     t       =   0.00000, dt      =   0.00200, vlimit  =  20.00000

Langevin dynamics temperature regulation:
     ig      =   71277
     temp0   = 300.00000, tempi   =   0.00000, gamma_ln=   1.00000

SHAKE:
     ntc     =       2, jfastw  =       0
     tol     =   0.00001

QMMM options:
             ifqnt = True       nquant =       29
              qmgb =        2  qmcharge =        0   adjust_q =        2
              spin =        1     qmcut =  20.0000    qmshake =        1
          qmmm_int =        1
     lnk_atomic_no =        1   lnk_dis =   1.0900 lnk_method =        1
          qm_theory =     RM1 verbosity =        0
            qmqmdx = Analytical
      tight_p_conv = False (converge density to 0.05xSqrt[SCFCRT])
           scfconv = 0.100E-07  itrmax =     1000
      printcharges = False      printdipole = False      peptide_corr = False
    qmmmrij_incore = True
  qmqm_erep_incore = True
       pseudo_diag = True pseudo_diag_criteria =   0.0500
      diag_routine =        0
          qm_ewald =        0 qm_pme = False

--------------------------------------------------------------------------------
   3.  ATOMIC COORDINATES AND VELOCITIES
--------------------------------------------------------------------------------

default_name
 begin time read from input coords =     0.000 ps

 Number of triangulated 3-point waters found:        0
QMMM: ADJUSTING CHARGES
QMMM: ----------------------------------------------------------------------
QMMM: adjust_q = 2
QMMM: Uniformly adjusting the charge of MM atoms to conserve total charge.
QMMM:                             qm_charge =    0
QMMM: QM atom RESP charge sum (inc MM link) =   -0.000
QMMM: Adjusting each MM atom resp charge by =   -0.000
QMMM:          Sum of MM + QM region is now =   -3.000
QMMM: ----------------------------------------------------------------------

QMMM: Link Atom Information
QMMM: ------------------------------------------------------------------------
QMMM: nlink =     0
QMMM: ------------------------------------------------------------------------

  QMMM: QM Region Cartesian Coordinates (*=link atom)
  QMMM: QM_NO.   MM_NO.  ATOM         X         Y         Z
  QMMM:     1     4647      O        8.7128    1.1318   20.7275
  QMMM:     2     4648      C        8.1731    0.2466   21.4111
  QMMM:     3     4649      N        8.8693   -0.4721   22.3761
  QMMM:     4     4650      C       10.2207   -0.0893   22.6361
  QMMM:     5     4651      C       10.4579    1.1184   23.2950
  QMMM:     6     4652      C       11.7681    1.5152   23.5300
  QMMM:     7     4653      C       12.8239    0.7160   23.1107
  QMMM:     8     4654      C       12.5756   -0.4883   22.4640
  QMMM:     9     4655      C       11.2733   -0.9069   22.2213
  QMMM:    10     4656      N        6.8066   -0.0630   21.2398
  QMMM:    11     4657      C        6.1565    0.4873   20.1142
  QMMM:    12     4658      C        5.0032    1.2553   20.2434
  QMMM:    13     4659      C        4.3880    1.7514   19.0789
  QMMM:    14     4660      C        4.9614    1.4342   17.8217
  QMMM:    15     4661      N        6.0765    0.7012   17.6722
  QMMM:    16     4662      C        6.6588    0.2466   18.8143
  QMMM:    17     4663      H        8.5099   -1.3280   22.7966
  QMMM:    18     4664      H        9.6249    1.7526   23.6205
  QMMM:    19     4665      H       11.9586    2.4691   24.0333
  QMMM:    20     4666      H       13.8533    1.0501   23.2636
  QMMM:    21     4667      H       13.4114   -1.1087   22.1225
  QMMM:    22     4668      H       11.0824   -1.8520   21.6995
  QMMM:    23     4669      H        6.2179   -0.4115   22.0041
  QMMM:    24     4670      H        4.5948    1.4846   21.2358
  QMMM:    25     4671      N        3.2044    2.4558   19.1582
  QMMM:    26     4672      H        4.5443    1.8210   16.8849
  QMMM:    27     4673      F        7.7751   -0.4420   18.6233
  QMMM:    28     4674      H        2.9931    2.9302   20.0282
  QMMM:    29     4675      H        2.9035    2.9527   18.3298

--------------------------------------------------------------------------------
  3.1 QM CALCULATION INFO
--------------------------------------------------------------------------------

QMMM: SINGLET STATE CALCULATION
QMMM: RHF CALCULATION, NO. OF DOUBLY OCCUPIED LEVELS = 46

--------------------------------------------------------------------------------
   4.  RESULTS
 NSTEP =        0   TIME(PS) =       0.000  TEMP(K) =     0.00  PRESS =     0.0
 Etot   =    -11992.2677  EKtot   =         0.0000  EPtot      =    -11992.2677
 BOND   =       142.5597  ANGLE   =       551.8348  DIHED      =      1193.7656
 1-4 NB =       952.8846  1-4 EEL =     12130.2870  VDWAALS    =     -2643.1264
 EELEC  =    -21549.4803  EGB     =     -2934.9274  RESTRAINT  =         0.0000
 RM1ESCF=       -56.2464
 CMAP   =       220.1812
 ------------------------------------------------------------------------------

      A V E R A G E S   O V E R   10000 S T E P S

 NSTEP =    10000   TIME(PS) =      20.000  TEMP(K) =   284.16  PRESS =     0.0
 Etot   =     -5252.6655  EKtot   =      3307.8590  EPtot      =     -8560.5245
 BOND   =       882.6430  ANGLE   =      2280.5239  DIHED      =      1655.3313
 1-4 NB =      1042.7377  1-4 EEL =     11991.2413  VDWAALS    =     -2384.8678
 EELEC  =    -20917.6923  EGB     =     -3311.1425  RESTRAINT  =         0.0000
 RM1ESCF=       -26.3699
 CMAP   =       227.0709
 ------------------------------------------------------------------------------

      R M S  F L U C T U A T I O N S

 NSTEP =    10000   TIME(PS) =      20.000  TEMP(K) =    44.48  PRESS =     0.0
 Etot   =      1067.8069  EKtot   =       517.7724  EPtot      =       551.9915
 BOND   =       120.3532  ANGLE   =       275.5192  DIHED      =        78.1869
 1-4 NB =        20.0245  1-4 EEL =        43.3887  VDWAALS    =        47.4979
 EELEC  =       124.8864  EGB     =        85.2229  RESTRAINT  =         0.0000
 RM1ESCF=         8.3499
 CMAP   =         7.8565
 ------------------------------------------------------------------------------
