-------------------------------------------------------
          Amber 18 SANDER                              2018
          -------------------------------------------------------

  [-O]verwriting output

File Assignments:

 Here is the input file:

MD with GB7
 &cntrl
  nstlim = 10000, dt = 0.002,
  ntwr = 5000, ntwx = 500,
  ntc = 2, ntf = 2,
  ntt = 3, temp0 = 300, gamma_ln = 1.0,
  ntb = 0, igb = 7, cut = 9999.0,
  ifqnt = 1,
 /

 &qmmm
  qmmask = ':305', qmcharge = 0,
  qm_theory = 'RM1', qmcut = 20.0,
 /

--------------------------------------------------------------------------------
   1.  RESOURCE   USE:
--------------------------------------------------------------------------------

 NATOM  =    4676 NTYPES =      24 NBONH =    2308 MBONA  =    2422
 NTHETH =    5215 MTHETA =    3293 NPHIH =   10759 MPHIA  =   10499
 NHPARM =       0 NPARM  =       0 NNB   =   25729 NRES   =     305
 NBONA  =    2422 NTHETA =    3293 NPHIA =   10499 NUMBND =      89
 NUMANG =     202 NPTRA  =     207 NATYP =      47 NPHB   =       0
 IFBOX  =       0 NMXRS  =      30 IFCAP =       0 NEXTRA =       0
 NCOPY  =       0

 Implicit solvent radii are ArgH and AspGluO modified Bondi2 radii (mbondi3)
 Replacing prmtop screening parameters with GBn (igb=7) values

LOADING THE QUANTUM ATOMS AS GROUPS
     Mask :305; matches    30 atoms

--------------------------------------------------------------------------------
   2.  CONTROL  DATA  FOR  THE  RUN
--------------------------------------------------------------------------------

default_name

General flags:
     imin    =       0, nmropt  =       0

Nature and format of input:
     ntx     =       1, irest   =       0, ntrx    =       1

Nature and format of output:
     ntxo    =       2, ntpr    =      50, ntrx    =       1, ntwr    =    5000
     iwrap   =       0, ntwx    =     500, ntwv    =       0, ntwe    =       0
     ioutfm  =       1, ntwprt  =       0, idecomp =       0, rbornstat=      0

Potential function:
     ntf     =       2, ntb     =       0, igb     =       7, nsnb    =      25
     ipol    =       0, gbsa    =       0, iesp    =       0
     dielc   =   1.00000, cut     =9999.00000, intdiel =   1.00000
     saltcon =   0.00000, offset  =   0.09000, gbalpha=    1.09511
     gbbeta  =   1.90793, gbgamma =   2.50798, surften =   0.00500
     rdt     =   0.00000, rgbmax  =  25.00000  extdiel =  78.50000
     alpb  =        0

Frozen or restrained atoms:
     ibelly  =       0, ntr     =       0

Molecular dynamics:
     nstlim  =     10000, nscm    =      1000, nrespa  =         1
     t       =   0.00000, dt      =   0.00200, vlimit  =  20.00000

Langevin dynamics temperature regulation:
     ig      =   71277
     temp0   = 300.00000, tempi   =   0.00000, gamma_ln=   1.00000

SHAKE:
     ntc     =       2, jfastw  =       0
     tol     =   0.00001

QMMM options:
             ifqnt = True       nquant =       30
              qmgb =        2  qmcharge =        0   adjust_q =        2
              spin =        1     qmcut =  20.0000    qmshake =        1
          qmmm_int =        1
     lnk_atomic_no =        1   lnk_dis =   1.0900 lnk_method =        1
          qm_theory =     RM1 verbosity =        0
            qmqmdx = Analytical
      tight_p_conv = False (converge density to 0.05xSqrt[SCFCRT])
           scfconv = 0.100E-07  itrmax =     1000
      printcharges = False      printdipole = False      peptide_corr = False
    qmmmrij_incore = True
  qmqm_erep_incore = True
       pseudo_diag = True pseudo_diag_criteria =   0.0500
      diag_routine =        0
          qm_ewald =        0 qm_pme = False

--------------------------------------------------------------------------------
   3.  ATOMIC COORDINATES AND VELOCITIES
--------------------------------------------------------------------------------

default_name
 begin time read from input coords =     0.000 ps

 Number of triangulated 3-point waters found:        0
QMMM: ADJUSTING CHARGES
QMMM: ----------------------------------------------------------------------
QMMM: adjust_q = 2
QMMM: Uniformly adjusting the charge of MM atoms to conserve total charge.
QMMM:                             qm_charge =    0
QMMM: QM atom RESP charge sum (inc MM link) =    0.000
QMMM: Adjusting each MM atom resp charge by =    0.000
QMMM:          Sum of MM + QM region is now =   -3.000
QMMM: ----------------------------------------------------------------------

QMMM: Link Atom Information
QMMM: ------------------------------------------------------------------------
QMMM: nlink =     0
QMMM: ------------------------------------------------------------------------

  QMMM: QM Region Cartesian Coordinates (*=link atom)
  QMMM: QM_NO.   MM_NO.  ATOM         X         Y         Z
  QMMM:     1     4647      O        8.7255    1.1231   20.7194
  QMMM:     2     4648      C        8.2629    0.1305   21.3107
  QMMM:     3     4649      N        9.0033   -0.6086   22.2289
  QMMM:     4     4650      C       10.3247   -0.1603   22.5306
  QMMM:     5     4651      C       10.4859    1.0579   23.1939
  QMMM:     6     4652      C       11.7682    1.5071   23.4799
  QMMM:     7     4653      C       12.8706    0.7496   23.1046
  QMMM:     8     4654      C       12.6980   -0.4669   22.4548
  QMMM:     9     4655      C       11.4256   -0.9375   22.1629
  QMMM:    10     4656      N        6.9286   -0.2645   21.1053
  QMMM:    11     4657      C        6.2341    0.3084   20.0264
  QMMM:    12     4658      C        5.0137    0.9840   20.1928
  QMMM:    13     4659      C        4.3965    1.5742   19.0597
  QMMM:    14     4660      C        4.9670    1.4539   17.7701
  QMMM:    15     4661      N        6.1060    0.7946   17.5921
  QMMM:    16     4662      C        6.7218    0.2520   18.7153
  QMMM:    17     4663      H        8.7380   -1.5538   22.5090
  QMMM:    18     4664      H        9.6161    1.6595   23.4823
  QMMM:    19     4665      H       11.9017    2.4664   23.9899
  QMMM:    20     4666      H       13.8801    1.1276   23.2920
  QMMM:    21     4667      H       13.5699   -1.0520   22.1493
  QMMM:    22     4668      H       11.2922   -1.8909   21.6389
  QMMM:    23     4669      H        6.4184   -0.8733   21.7406
  QMMM:    24     4670      N        3.2251    2.1710   19.5222
  QMMM:    25     4671      H        4.5206    1.9234   16.8879
  QMMM:    26     4672      F        7.8759   -0.3331   18.4397
  QMMM:    27     4673      C        4.1547    1.2818   21.3045
  QMMM:    28     4674      N        3.1025    2.0076   20.8609
  QMMM:    29     4675      H        2.6272    2.8259   19.0089
  QMMM:    30     4676      H        4.2917    1.0082   22.3534

--------------------------------------------------------------------------------
  3.1 QM CALCULATION INFO
--------------------------------------------------------------------------------

QMMM: SINGLET STATE CALCULATION
QMMM: RHF CALCULATION, NO. OF DOUBLY OCCUPIED LEVELS = 50

--------------------------------------------------------------------------------
   4.  RESULTS
 NSTEP =        0   TIME(PS) =       0.000  TEMP(K) =     0.00  PRESS =     0.0
 Etot   =    -11954.0231  EKtot   =         0.0000  EPtot      =    -11954.0231
 BOND   =       143.3330  ANGLE   =       553.8770  DIHED      =      1195.4781
 1-4 NB =       951.2702  1-4 EEL =     12134.1483  VDWAALS    =     -2645.8026
 EELEC  =    -21558.5943  EGB     =     -2941.6188  RESTRAINT  =         0.0000
 RM1ESCF=        -5.4526
 CMAP   =       219.3384
 ------------------------------------------------------------------------------

      A V E R A G E S   O V E R   10000 S T E P S

 NSTEP =    10000   TIME(PS) =      20.000  TEMP(K) =   285.90  PRESS =     0.0
 Etot   =     -5166.9839  EKtot   =      3329.2581  EPtot      =     -8496.2420
 BOND   =       889.9859  ANGLE   =      2286.5845  DIHED      =      1661.2321
 1-4 NB =      1043.5382  1-4 EEL =     12011.6428  VDWAALS    =     -2371.6542
 EELEC  =    -20911.2334  EGB     =     -3352.1782  RESTRAINT  =         0.0000
 RM1ESCF=        23.1886
 CMAP   =       222.6516
 ------------------------------------------------------------------------------

      R M S  F L U C T U A T I O N S

 NSTEP =    10000   TIME(PS) =      20.000  TEMP(K) =    45.12  PRESS =     0.0
 Etot   =      1085.5526  EKtot   =       525.4533  EPtot      =       562.0390
 BOND   =       121.7847  ANGLE   =       277.8139  DIHED      =        79.0649
 1-4 NB =        19.7242  1-4 EEL =        42.2838  VDWAALS    =        54.2761
 EELEC  =       139.6295  EGB     =       102.6778  RESTRAINT  =         0.0000
 RM1ESCF=         7.9283
 CMAP   =         7.5525
 ------------------------------------------------------------------------------
