-------------------------------------------------------
          Amber 18 SANDER                              2018
          -------------------------------------------------------

  [-O]verwriting output

File Assignments:

 Here is the input file:

MD with GB7
 &cntrl
  nstlim = 10000, dt = 0.002,
  ntwr = 5000, ntwx = 500,
  ntc = 2, ntf = 2,
  ntt = 3, temp0 = 300, gamma_ln = 1.0,
  ntb = 0, igb = 7, cut = 9999.0,
  ifqnt = 1,
 /

 &qmmm
  qmmask = ':305', qmcharge = 0,
  qm_theory = 'RM1', qmcut = 20.0,
 /

--------------------------------------------------------------------------------
   1.  RESOURCE   USE:
--------------------------------------------------------------------------------

 NATOM  =    4678 NTYPES =      23 NBONH =    2309 MBONA  =    2423
 NTHETH =    5217 MTHETA =    3294 NPHIH =   10763 MPHIA  =   10500
 NHPARM =       0 NPARM  =       0 NNB   =   25739 NRES   =     305
 NBONA  =    2423 NTHETA =    3294 NPHIA =   10500 NUMBND =      83
 NUMANG =     193 NPTRA  =     204 NATYP =      44 NPHB   =       0
 IFBOX  =       0 NMXRS  =      32 IFCAP =       0 NEXTRA =       0
 NCOPY  =       0

 Implicit solvent radii are ArgH and AspGluO modified Bondi2 radii (mbondi3)
 Replacing prmtop screening parameters with GBn (igb=7) values

LOADING THE QUANTUM ATOMS AS GROUPS
     Mask :305; matches    32 atoms

--------------------------------------------------------------------------------
   2.  CONTROL  DATA  FOR  THE  RUN
--------------------------------------------------------------------------------

default_name

General flags:
     imin    =       0, nmropt  =       0

Nature and format of input:
     ntx     =       1, irest   =       0, ntrx    =       1

Nature and format of output:
     ntxo    =       2, ntpr    =      50, ntrx    =       1, ntwr    =    5000
     iwrap   =       0, ntwx    =     500, ntwv    =       0, ntwe    =       0
     ioutfm  =       1, ntwprt  =       0, idecomp =       0, rbornstat=      0

Potential function:
     ntf     =       2, ntb     =       0, igb     =       7, nsnb    =      25
     ipol    =       0, gbsa    =       0, iesp    =       0
     dielc   =   1.00000, cut     =9999.00000, intdiel =   1.00000
     saltcon =   0.00000, offset  =   0.09000, gbalpha=    1.09511
     gbbeta  =   1.90793, gbgamma =   2.50798, surften =   0.00500
     rdt     =   0.00000, rgbmax  =  25.00000  extdiel =  78.50000
     alpb  =        0

Frozen or restrained atoms:
     ibelly  =       0, ntr     =       0

Molecular dynamics:
     nstlim  =     10000, nscm    =      1000, nrespa  =         1
     t       =   0.00000, dt      =   0.00200, vlimit  =  20.00000

Langevin dynamics temperature regulation:
     ig      =   71277
     temp0   = 300.00000, tempi   =   0.00000, gamma_ln=   1.00000

SHAKE:
     ntc     =       2, jfastw  =       0
     tol     =   0.00001

QMMM options:
             ifqnt = True       nquant =       32
              qmgb =        2  qmcharge =        0   adjust_q =        2
              spin =        1     qmcut =  20.0000    qmshake =        1
          qmmm_int =        1
     lnk_atomic_no =        1   lnk_dis =   1.0900 lnk_method =        1
          qm_theory =     RM1 verbosity =        0
            qmqmdx = Analytical
      tight_p_conv = False (converge density to 0.05xSqrt[SCFCRT])
           scfconv = 0.100E-07  itrmax =     1000
      printcharges = False      printdipole = False      peptide_corr = False
    qmmmrij_incore = True
  qmqm_erep_incore = True
       pseudo_diag = True pseudo_diag_criteria =   0.0500
      diag_routine =        0
          qm_ewald =        0 qm_pme = False

--------------------------------------------------------------------------------
   3.  ATOMIC COORDINATES AND VELOCITIES
--------------------------------------------------------------------------------

default_name
 begin time read from input coords =     0.000 ps

 Number of triangulated 3-point waters found:        0
QMMM: ADJUSTING CHARGES
QMMM: ----------------------------------------------------------------------
QMMM: adjust_q = 2
QMMM: Uniformly adjusting the charge of MM atoms to conserve total charge.
QMMM:                             qm_charge =    0
QMMM: QM atom RESP charge sum (inc MM link) =   -0.001
QMMM: Adjusting each MM atom resp charge by =   -0.000
QMMM:          Sum of MM + QM region is now =   -3.001
QMMM: ----------------------------------------------------------------------

QMMM: Link Atom Information
QMMM: ------------------------------------------------------------------------
QMMM: nlink =     0
QMMM: ------------------------------------------------------------------------

  QMMM: QM Region Cartesian Coordinates (*=link atom)
  QMMM: QM_NO.   MM_NO.  ATOM         X         Y         Z
  QMMM:     1     4647      O        8.8558    1.1428   20.7847
  QMMM:     2     4648      C        8.3999    0.1589   21.3877
  QMMM:     3     4649      N        9.1535   -0.5981   22.2792
  QMMM:     4     4650      C       10.4814   -0.1696   22.5603
  QMMM:     5     4651      C       10.6614    1.0502   23.2139
  QMMM:     6     4652      C       11.9529    1.4943   23.4661
  QMMM:     7     4653      C       13.0438    0.7281   23.0748
  QMMM:     8     4654      C       12.8469   -0.4937   22.4449
  QMMM:     9     4655      C       11.5673   -0.9593   22.1807
  QMMM:    10     4656      N        7.0444   -0.1922   21.2466
  QMMM:    11     4657      C        6.3102    0.3723   20.1823
  QMMM:    12     4658      C        5.1201    1.1102   20.4422
  QMMM:    13     4659      C        4.3533    1.5187   19.3354
  QMMM:    14     4660      C        4.8506    1.2832   18.0092
  QMMM:    15     4661      N        6.0061    0.6856   17.7687
  QMMM:    16     4662      C        6.7223    0.2354   18.8712
  QMMM:    17     4663      H        8.8751   -1.5358   22.5753
  QMMM:    18     4664      H        9.8047    1.6682   23.5078
  QMMM:    19     4665      H       12.1049    2.4630   23.9558
  QMMM:    20     4666      H       14.0594    1.1063   23.2378
  QMMM:    21     4667      H       13.7090   -1.0842   22.1280
  QMMM:    22     4668      H       11.4189   -1.9096   21.6612
  QMMM:    23     4669      H        6.5472   -0.8260   21.8833
  QMMM:    24     4670      N        3.1244    2.1363   19.4684
  QMMM:    25     4671      H        4.2869    1.6114   17.1290
  QMMM:    26     4672      F        7.8663   -0.3425   18.5563
  QMMM:    27     4673      C        4.6678    1.4584   21.7412
  QMMM:    28     4674      H        5.2665    1.1964   22.6210
  QMMM:    29     4675      C        3.4849    2.1332   21.8763
  QMMM:    30     4676      H        3.0974    2.4411   22.8553
  QMMM:    31     4677      C        2.7228    2.4197   20.7060
  QMMM:    32     4678      H        1.7259    2.9152   20.7763

--------------------------------------------------------------------------------
  3.1 QM CALCULATION INFO
--------------------------------------------------------------------------------

QMMM: SINGLET STATE CALCULATION
QMMM: RHF CALCULATION, NO. OF DOUBLY OCCUPIED LEVELS = 52

--------------------------------------------------------------------------------
   4.  RESULTS
 NSTEP =        0   TIME(PS) =       0.000  TEMP(K) =     0.00  PRESS =     0.0
 Etot   =    -11945.4233  EKtot   =         0.0000  EPtot      =    -11945.4233
 BOND   =       141.5635  ANGLE   =       554.5441  DIHED      =      1199.1301
 1-4 NB =       957.1054  1-4 EEL =     12138.4706  VDWAALS    =     -2645.9271
 EELEC  =    -21570.5615  EGB     =     -2940.0506  RESTRAINT  =         0.0000
 RM1ESCF=        -1.9156
 CMAP   =       222.2178
 ------------------------------------------------------------------------------

      A V E R A G E S   O V E R   10000 S T E P S

 NSTEP =    10000   TIME(PS) =      20.000  TEMP(K) =   284.65  PRESS =     0.0
 Etot   =     -5203.7487  EKtot   =      3316.0987  EPtot      =     -8519.8474
 BOND   =       884.2221  ANGLE   =      2279.2140  DIHED      =      1656.7971
 1-4 NB =      1043.6953  1-4 EEL =     12005.0933  VDWAALS    =     -2365.0507
 EELEC  =    -20913.1832  EGB     =     -3354.8978  RESTRAINT  =         0.0000
 RM1ESCF=        21.7056
 CMAP   =       222.5570
 ------------------------------------------------------------------------------

      R M S  F L U C T U A T I O N S

 NSTEP =    10000   TIME(PS) =      20.000  TEMP(K) =    44.38  PRESS =     0.0
 Etot   =      1067.5743  EKtot   =       517.0065  EPtot      =       552.5724
 BOND   =       120.2115  ANGLE   =       272.9881  DIHED      =        78.2274
 1-4 NB =        20.2444  1-4 EEL =        41.0828  VDWAALS    =        51.8762
 EELEC  =       148.5499  EGB     =       111.0747  RESTRAINT  =         0.0000
 RM1ESCF=         9.1995
 CMAP   =         8.7128
 ------------------------------------------------------------------------------
