-------------------------------------------------------
          Amber 18 SANDER                              2018
          -------------------------------------------------------

  [-O]verwriting output

File Assignments:

 Here is the input file:

MD with GB7
 &cntrl
  nstlim = 10000, dt = 0.002,
  ntwr = 5000, ntwx = 500,
  ntc = 2, ntf = 2,
  ntt = 3, temp0 = 300, gamma_ln = 1.0,
  ntb = 0, igb = 7, cut = 9999.0,
  ifqnt = 1,
 /

 &qmmm
  qmmask = ':305', qmcharge = 0,
  qm_theory = 'RM1', qmcut = 20.0,
 /

--------------------------------------------------------------------------------
   1.  RESOURCE   USE:
--------------------------------------------------------------------------------

 NATOM  =    4682 NTYPES =      26 NBONH =    2316 MBONA  =    2419
 NTHETH =    5237 MTHETA =    3288 NPHIH =   10793 MPHIA  =   10504
 NHPARM =       0 NPARM  =       0 NNB   =   25783 NRES   =     305
 NBONA  =    2419 NTHETA =    3288 NPHIA =   10504 NUMBND =      88
 NUMANG =     202 NPTRA  =     219 NATYP =      47 NPHB   =       0
 IFBOX  =       0 NMXRS  =      36 IFCAP =       0 NEXTRA =       0
 NCOPY  =       0

 Implicit solvent radii are ArgH and AspGluO modified Bondi2 radii (mbondi3)
 Replacing prmtop screening parameters with GBn (igb=7) values

LOADING THE QUANTUM ATOMS AS GROUPS
     Mask :305; matches    36 atoms

--------------------------------------------------------------------------------
   2.  CONTROL  DATA  FOR  THE  RUN
--------------------------------------------------------------------------------

default_name

General flags:
     imin    =       0, nmropt  =       0

Nature and format of input:
     ntx     =       1, irest   =       0, ntrx    =       1

Nature and format of output:
     ntxo    =       2, ntpr    =      50, ntrx    =       1, ntwr    =    5000
     iwrap   =       0, ntwx    =     500, ntwv    =       0, ntwe    =       0
     ioutfm  =       1, ntwprt  =       0, idecomp =       0, rbornstat=      0

Potential function:
     ntf     =       2, ntb     =       0, igb     =       7, nsnb    =      25
     ipol    =       0, gbsa    =       0, iesp    =       0
     dielc   =   1.00000, cut     =9999.00000, intdiel =   1.00000
     saltcon =   0.00000, offset  =   0.09000, gbalpha=    1.09511
     gbbeta  =   1.90793, gbgamma =   2.50798, surften =   0.00500
     rdt     =   0.00000, rgbmax  =  25.00000  extdiel =  78.50000
     alpb  =        0

Frozen or restrained atoms:
     ibelly  =       0, ntr     =       0

Molecular dynamics:
     nstlim  =     10000, nscm    =      1000, nrespa  =         1
     t       =   0.00000, dt      =   0.00200, vlimit  =  20.00000

Langevin dynamics temperature regulation:
     ig      =   71277
     temp0   = 300.00000, tempi   =   0.00000, gamma_ln=   1.00000

SHAKE:
     ntc     =       2, jfastw  =       0
     tol     =   0.00001

QMMM options:
             ifqnt = True       nquant =       36
              qmgb =        2  qmcharge =        0   adjust_q =        2
              spin =        1     qmcut =  20.0000    qmshake =        1
          qmmm_int =        1
     lnk_atomic_no =        1   lnk_dis =   1.0900 lnk_method =        1
          qm_theory =     RM1 verbosity =        0
            qmqmdx = Analytical
      tight_p_conv = False (converge density to 0.05xSqrt[SCFCRT])
           scfconv = 0.100E-07  itrmax =     1000
      printcharges = False      printdipole = False      peptide_corr = False
    qmmmrij_incore = True
  qmqm_erep_incore = True
       pseudo_diag = True pseudo_diag_criteria =   0.0500
      diag_routine =        0
          qm_ewald =        0 qm_pme = False

--------------------------------------------------------------------------------
   3.  ATOMIC COORDINATES AND VELOCITIES
--------------------------------------------------------------------------------

default_name
 begin time read from input coords =     0.000 ps

 Number of triangulated 3-point waters found:        0
QMMM: ADJUSTING CHARGES
QMMM: ----------------------------------------------------------------------
QMMM: adjust_q = 2
QMMM: Uniformly adjusting the charge of MM atoms to conserve total charge.
QMMM:                             qm_charge =    0
QMMM: QM atom RESP charge sum (inc MM link) =    0.002
QMMM: Adjusting each MM atom resp charge by =    0.000
QMMM:          Sum of MM + QM region is now =   -2.998
QMMM: ----------------------------------------------------------------------

QMMM: Link Atom Information
QMMM: ------------------------------------------------------------------------
QMMM: nlink =     0
QMMM: ------------------------------------------------------------------------

  QMMM: QM Region Cartesian Coordinates (*=link atom)
  QMMM: QM_NO.   MM_NO.  ATOM         X         Y         Z
  QMMM:     1     4647      O        9.2329    1.2652   20.9599
  QMMM:     2     4648      C        8.6522    0.6321   21.8433
  QMMM:     3     4649      C        9.2751    0.2211   23.1593
  QMMM:     4     4650      C       10.7983    0.1088   23.0311
  QMMM:     5     4651      C       11.1701   -1.0051   22.0495
  QMMM:     6     4652      C       12.3631   -1.8362   22.5099
  QMMM:     7     4653      C       13.4546   -0.9891   23.1440
  QMMM:     8     4654      C       12.9332   -0.1118   24.2799
  QMMM:     9     4655      C       11.4144   -0.1581   24.4042
  QMMM:    10     4656      N        7.3015    0.3129   21.6771
  QMMM:    11     4657      C        6.6059    0.6488   20.4963
  QMMM:    12     4658      C        5.3845    1.3116   20.5549
  QMMM:    13     4659      C        4.7205    1.6234   19.3539
  QMMM:    14     4660      C        5.3069    1.2177   18.1317
  QMMM:    15     4661      N        6.4851    0.5781   18.0453
  QMMM:    16     4662      C        7.1142    0.3122   19.2191
  QMMM:    17     4663      H        8.8498   -0.7371   23.5385
  QMMM:    18     4664      H        8.9940    0.9820   23.9233
  QMMM:    19     4665      H       11.2019    1.0837   22.6514
  QMMM:    20     4666      H       10.3168   -1.6896   21.8517
  QMMM:    21     4667      H       11.3658   -0.5572   21.0574
  QMMM:    22     4668      H       12.7819   -2.3921   21.6457
  QMMM:    23     4669      H       12.0343   -2.6274   23.2169
  QMMM:    24     4670      H       14.2664   -1.6523   23.5132
  QMMM:    25     4671      H       13.9442   -0.3679   22.3680
  QMMM:    26     4672      H       13.4077   -0.4121   25.2364
  QMMM:    27     4673      H       13.2618    0.9377   24.1232
  QMMM:    28     4674      H       11.0645    0.5875   25.1478
  QMMM:    29     4675      H       11.0721   -1.1320   24.8099
  QMMM:    30     4676      H        6.7449   -0.0918   22.4367
  QMMM:    31     4677      H        4.9473    1.5873   21.5265
  QMMM:    32     4678      N        3.4853    2.2449   19.3714
  QMMM:    33     4679      H        4.8424    1.4342   17.1646
  QMMM:    34     4680      F        8.2839   -0.2985   19.0865
  QMMM:    35     4681      H        3.2401    2.7748   20.1991
  QMMM:    36     4682      H        3.1656    2.6565   18.5052

--------------------------------------------------------------------------------
  3.1 QM CALCULATION INFO
--------------------------------------------------------------------------------

QMMM: SINGLET STATE CALCULATION
QMMM: RHF CALCULATION, NO. OF DOUBLY OCCUPIED LEVELS = 49

--------------------------------------------------------------------------------
   4.  RESULTS
 NSTEP =        0   TIME(PS) =       0.000  TEMP(K) =     0.00  PRESS =     0.0
 Etot   =    -12048.0229  EKtot   =         0.0000  EPtot      =    -12048.0229
 BOND   =       143.0944  ANGLE   =       551.0343  DIHED      =      1197.1304
 1-4 NB =       949.2739  1-4 EEL =     12142.0732  VDWAALS    =     -2640.2747
 EELEC  =    -21559.3251  EGB     =     -2936.9008  RESTRAINT  =         0.0000
 RM1ESCF=      -112.5679
 CMAP   =       218.4395
 ------------------------------------------------------------------------------

      A V E R A G E S   O V E R   10000 S T E P S

 NSTEP =    10000   TIME(PS) =      20.000  TEMP(K) =   285.03  PRESS =     0.0
 Etot   =     -5275.6779  EKtot   =      3321.9626  EPtot      =     -8597.6405
 BOND   =       882.7199  ANGLE   =      2282.3948  DIHED      =      1655.2306
 1-4 NB =      1044.9517  1-4 EEL =     12027.3561  VDWAALS    =     -2379.2180
 EELEC  =    -20990.2786  EGB     =     -3274.6062  RESTRAINT  =         0.0000
 RM1ESCF=       -68.0486
 CMAP   =       221.8579
 ------------------------------------------------------------------------------

      R M S  F L U C T U A T I O N S

 NSTEP =    10000   TIME(PS) =      20.000  TEMP(K) =    44.62  PRESS =     0.0
 Etot   =      1072.0396  EKtot   =       520.0182  EPtot      =       554.0412
 BOND   =       118.6616  ANGLE   =       275.3885  DIHED      =        77.3745
 1-4 NB =        20.0226  1-4 EEL =        41.3561  VDWAALS    =        50.4782
 EELEC  =       140.9630  EGB     =       110.2633  RESTRAINT  =         0.0000
 RM1ESCF=        12.1973
 CMAP   =         9.4330
 ------------------------------------------------------------------------------
