-------------------------------------------------------
          Amber 18 SANDER                              2018
          -------------------------------------------------------

  [-O]verwriting output

File Assignments:

 Here is the input file:

MD with GB7
 &cntrl
  nstlim = 10000, dt = 0.002,
  ntwr = 5000, ntwx = 500,
  ntc = 2, ntf = 2,
  ntt = 3, temp0 = 300, gamma_ln = 1.0,
  ntb = 0, igb = 7, cut = 9999.0,
  ifqnt = 1,
 /

 &qmmm
  qmmask = ':305', qmcharge = 0,
  qm_theory = 'RM1', qmcut = 20.0,
 /

--------------------------------------------------------------------------------
   1.  RESOURCE   USE:
--------------------------------------------------------------------------------

 NATOM  =    4673 NTYPES =      23 NBONH =    2308 MBONA  =    2418
 NTHETH =    5215 MTHETA =    3286 NPHIH =   10759 MPHIA  =   10485
 NHPARM =       0 NPARM  =       0 NNB   =   25709 NRES   =     305
 NBONA  =    2418 NTHETA =    3286 NPHIA =   10485 NUMBND =      83
 NUMANG =     193 NPTRA  =     204 NATYP =      44 NPHB   =       0
 IFBOX  =       0 NMXRS  =      27 IFCAP =       0 NEXTRA =       0
 NCOPY  =       0

 Implicit solvent radii are ArgH and AspGluO modified Bondi2 radii (mbondi3)
 Replacing prmtop screening parameters with GBn (igb=7) values

LOADING THE QUANTUM ATOMS AS GROUPS
     Mask :305; matches    27 atoms

--------------------------------------------------------------------------------
   2.  CONTROL  DATA  FOR  THE  RUN
--------------------------------------------------------------------------------

default_name

General flags:
     imin    =       0, nmropt  =       0

Nature and format of input:
     ntx     =       1, irest   =       0, ntrx    =       1

Nature and format of output:
     ntxo    =       2, ntpr    =      50, ntrx    =       1, ntwr    =    5000
     iwrap   =       0, ntwx    =     500, ntwv    =       0, ntwe    =       0
     ioutfm  =       1, ntwprt  =       0, idecomp =       0, rbornstat=      0

Potential function:
     ntf     =       2, ntb     =       0, igb     =       7, nsnb    =      25
     ipol    =       0, gbsa    =       0, iesp    =       0
     dielc   =   1.00000, cut     =9999.00000, intdiel =   1.00000
     saltcon =   0.00000, offset  =   0.09000, gbalpha=    1.09511
     gbbeta  =   1.90793, gbgamma =   2.50798, surften =   0.00500
     rdt     =   0.00000, rgbmax  =  25.00000  extdiel =  78.50000
     alpb  =        0

Frozen or restrained atoms:
     ibelly  =       0, ntr     =       0

Molecular dynamics:
     nstlim  =     10000, nscm    =      1000, nrespa  =         1
     t       =   0.00000, dt      =   0.00200, vlimit  =  20.00000

Langevin dynamics temperature regulation:
     ig      =   71277
     temp0   = 300.00000, tempi   =   0.00000, gamma_ln=   1.00000

SHAKE:
     ntc     =       2, jfastw  =       0
     tol     =   0.00001

QMMM options:
             ifqnt = True       nquant =       27
              qmgb =        2  qmcharge =        0   adjust_q =        2
              spin =        1     qmcut =  20.0000    qmshake =        1
          qmmm_int =        1
     lnk_atomic_no =        1   lnk_dis =   1.0900 lnk_method =        1
          qm_theory =     RM1 verbosity =        0
            qmqmdx = Analytical
      tight_p_conv = False (converge density to 0.05xSqrt[SCFCRT])
           scfconv = 0.100E-07  itrmax =     1000
      printcharges = False      printdipole = False      peptide_corr = False
    qmmmrij_incore = True
  qmqm_erep_incore = True
       pseudo_diag = True pseudo_diag_criteria =   0.0500
      diag_routine =        0
          qm_ewald =        0 qm_pme = False

--------------------------------------------------------------------------------
   3.  ATOMIC COORDINATES AND VELOCITIES
--------------------------------------------------------------------------------

default_name
 begin time read from input coords =     0.000 ps

 Number of triangulated 3-point waters found:        0
QMMM: ADJUSTING CHARGES
QMMM: ----------------------------------------------------------------------
QMMM: adjust_q = 2
QMMM: Uniformly adjusting the charge of MM atoms to conserve total charge.
QMMM:                             qm_charge =    0
QMMM: QM atom RESP charge sum (inc MM link) =   -0.001
QMMM: Adjusting each MM atom resp charge by =   -0.000
QMMM:          Sum of MM + QM region is now =   -3.001
QMMM: ----------------------------------------------------------------------

QMMM: Link Atom Information
QMMM: ------------------------------------------------------------------------
QMMM: nlink =     0
QMMM: ------------------------------------------------------------------------

  QMMM: QM Region Cartesian Coordinates (*=link atom)
  QMMM: QM_NO.   MM_NO.  ATOM         X         Y         Z
  QMMM:     1     4647      O        8.6805    1.1124   20.7184
  QMMM:     2     4648      C        8.1431    0.2291   21.4121
  QMMM:     3     4649      N        8.8397   -0.4556   22.3992
  QMMM:     4     4650      C       10.1893   -0.0648   22.6563
  QMMM:     5     4651      C       10.4244    1.1409   23.3193
  QMMM:     6     4652      C       11.7338    1.5424   23.5495
  QMMM:     7     4653      C       12.7909    0.7481   23.1245
  QMMM:     8     4654      C       12.5455   -0.4544   22.4729
  QMMM:     9     4655      C       11.2445   -0.8765   22.2338
  QMMM:    10     4656      N        6.7916   -0.1122   21.2172
  QMMM:    11     4657      C        6.1371    0.4231   20.0899
  QMMM:    12     4658      C        4.9238    1.1147   20.1970
  QMMM:    13     4659      C        4.3209    1.5902   19.0444
  QMMM:    14     4660      C        4.9411    1.3852   17.8071
  QMMM:    15     4661      N        6.1072    0.7245   17.6519
  QMMM:    16     4662      C        6.6850    0.2616   18.7978
  QMMM:    17     4663      H        8.4795   -1.2946   22.8518
  QMMM:    18     4664      H        9.5900    1.7696   23.6521
  QMMM:    19     4665      H       11.9227    2.4944   24.0564
  QMMM:    20     4666      H       13.8202    1.0853   23.2743
  QMMM:    21     4667      H       13.3820   -1.0713   22.1289
  QMMM:    22     4668      H       11.0542   -1.8205   21.7094
  QMMM:    23     4669      H        6.2085   -0.5022   21.9624
  QMMM:    24     4670      H        4.4603    1.2900   21.1773
  QMMM:    25     4671      H        3.3861    2.1584   19.0968
  QMMM:    26     4672      H        4.5186    1.7894   16.8793
  QMMM:    27     4673      F        7.8372   -0.3574   18.6111

--------------------------------------------------------------------------------
  3.1 QM CALCULATION INFO
--------------------------------------------------------------------------------

QMMM: SINGLET STATE CALCULATION
QMMM: RHF CALCULATION, NO. OF DOUBLY OCCUPIED LEVELS = 43

--------------------------------------------------------------------------------
   4.  RESULTS
 NSTEP =        0   TIME(PS) =       0.000  TEMP(K) =     0.00  PRESS =     0.0
 Etot   =    -11975.0987  EKtot   =         0.0000  EPtot      =    -11975.0987
 BOND   =       141.6874  ANGLE   =       552.1394  DIHED      =      1195.1578
 1-4 NB =       954.7832  1-4 EEL =     12133.9364  VDWAALS    =     -2642.4937
 EELEC  =    -21556.8354  EGB     =     -2934.0939  RESTRAINT  =         0.0000
 RM1ESCF=       -40.6422
 CMAP   =       221.2623
 ------------------------------------------------------------------------------

      A V E R A G E S   O V E R   10000 S T E P S

 NSTEP =    10000   TIME(PS) =      20.000  TEMP(K) =   286.51  PRESS =     0.0
 Etot   =     -5180.7037  EKtot   =      3333.7987  EPtot      =     -8514.5024
 BOND   =       887.8953  ANGLE   =      2293.7458  DIHED      =      1659.7229
 1-4 NB =      1042.7856  1-4 EEL =     11987.7092  VDWAALS    =     -2356.5300
 EELEC  =    -20877.5136  EGB     =     -3361.5045  RESTRAINT  =         0.0000
 RM1ESCF=       -12.2119
 CMAP   =       221.3989
 ------------------------------------------------------------------------------

      R M S  F L U C T U A T I O N S

 NSTEP =    10000   TIME(PS) =      20.000  TEMP(K) =    45.19  PRESS =     0.0
 Etot   =      1089.3081  EKtot   =       525.8313  EPtot      =       565.5531
 BOND   =       120.8410  ANGLE   =       279.1517  DIHED      =        79.8176
 1-4 NB =        19.9195  1-4 EEL =        43.2730  VDWAALS    =        60.3347
 EELEC  =       167.9139  EGB     =       136.4194  RESTRAINT  =         0.0000
 RM1ESCF=         9.6132
 CMAP   =         8.5039
 ------------------------------------------------------------------------------
