-------------------------------------------------------
          Amber 18 SANDER                              2018
          -------------------------------------------------------

  [-O]verwriting output

File Assignments:

 Here is the input file:

MD with GB7
 &cntrl
  nstlim = 10000, dt = 0.002,
  ntwr = 5000, ntwx = 500,
  ntc = 2, ntf = 2,
  ntt = 3, temp0 = 300, gamma_ln = 1.0,
  ntb = 0, igb = 7, cut = 9999.0,
  ifqnt = 1,
 /

 &qmmm
  qmmask = ':305', qmcharge = 0,
  qm_theory = 'RM1', qmcut = 20.0,
 /

--------------------------------------------------------------------------------
   1.  RESOURCE   USE:
--------------------------------------------------------------------------------

 NATOM  =    4677 NTYPES =      24 NBONH =    2308 MBONA  =    2423
 NTHETH =    5215 MTHETA =    3294 NPHIH =   10758 MPHIA  =   10500
 NHPARM =       0 NPARM  =       0 NNB   =   25732 NRES   =     305
 NBONA  =    2423 NTHETA =    3294 NPHIA =   10500 NUMBND =      84
 NUMANG =     195 NPTRA  =     204 NATYP =      45 NPHB   =       0
 IFBOX  =       0 NMXRS  =      31 IFCAP =       0 NEXTRA =       0
 NCOPY  =       0

 Implicit solvent radii are ArgH and AspGluO modified Bondi2 radii (mbondi3)
 Replacing prmtop screening parameters with GBn (igb=7) values

LOADING THE QUANTUM ATOMS AS GROUPS
     Mask :305; matches    31 atoms

--------------------------------------------------------------------------------
   2.  CONTROL  DATA  FOR  THE  RUN
--------------------------------------------------------------------------------

default_name

General flags:
     imin    =       0, nmropt  =       0

Nature and format of input:
     ntx     =       1, irest   =       0, ntrx    =       1

Nature and format of output:
     ntxo    =       2, ntpr    =      50, ntrx    =       1, ntwr    =    5000
     iwrap   =       0, ntwx    =     500, ntwv    =       0, ntwe    =       0
     ioutfm  =       1, ntwprt  =       0, idecomp =       0, rbornstat=      0

Potential function:
     ntf     =       2, ntb     =       0, igb     =       7, nsnb    =      25
     ipol    =       0, gbsa    =       0, iesp    =       0
     dielc   =   1.00000, cut     =9999.00000, intdiel =   1.00000
     saltcon =   0.00000, offset  =   0.09000, gbalpha=    1.09511
     gbbeta  =   1.90793, gbgamma =   2.50798, surften =   0.00500
     rdt     =   0.00000, rgbmax  =  25.00000  extdiel =  78.50000
     alpb  =        0

Frozen or restrained atoms:
     ibelly  =       0, ntr     =       0

Molecular dynamics:
     nstlim  =     10000, nscm    =      1000, nrespa  =         1
     t       =   0.00000, dt      =   0.00200, vlimit  =  20.00000

Langevin dynamics temperature regulation:
     ig      =   71277
     temp0   = 300.00000, tempi   =   0.00000, gamma_ln=   1.00000

SHAKE:
     ntc     =       2, jfastw  =       0
     tol     =   0.00001

QMMM options:
             ifqnt = True       nquant =       31
              qmgb =        2  qmcharge =        0   adjust_q =        2
              spin =        1     qmcut =  20.0000    qmshake =        1
          qmmm_int =        1
     lnk_atomic_no =        1   lnk_dis =   1.0900 lnk_method =        1
          qm_theory =     RM1 verbosity =        0
            qmqmdx = Analytical
      tight_p_conv = False (converge density to 0.05xSqrt[SCFCRT])
           scfconv = 0.100E-07  itrmax =     1000
      printcharges = False      printdipole = False      peptide_corr = False
    qmmmrij_incore = True
  qmqm_erep_incore = True
       pseudo_diag = True pseudo_diag_criteria =   0.0500
      diag_routine =        0
          qm_ewald =        0 qm_pme = False

--------------------------------------------------------------------------------
   3.  ATOMIC COORDINATES AND VELOCITIES
--------------------------------------------------------------------------------

default_name
 begin time read from input coords =     0.000 ps

 Number of triangulated 3-point waters found:        0
QMMM: ADJUSTING CHARGES
QMMM: ----------------------------------------------------------------------
QMMM: adjust_q = 2
QMMM: Uniformly adjusting the charge of MM atoms to conserve total charge.
QMMM:                             qm_charge =    0
QMMM: QM atom RESP charge sum (inc MM link) =   -0.000
QMMM: Adjusting each MM atom resp charge by =   -0.000
QMMM:          Sum of MM + QM region is now =   -3.000
QMMM: ----------------------------------------------------------------------

QMMM: Link Atom Information
QMMM: ------------------------------------------------------------------------
QMMM: nlink =     0
QMMM: ------------------------------------------------------------------------

  QMMM: QM Region Cartesian Coordinates (*=link atom)
  QMMM: QM_NO.   MM_NO.  ATOM         X         Y         Z
  QMMM:     1     4647      O        8.8884    1.2050   20.7862
  QMMM:     2     4648      C        8.3964    0.2700   21.4363
  QMMM:     3     4649      N        9.1287   -0.5172   22.3112
  QMMM:     4     4650      C       10.4782   -0.1322   22.5705
  QMMM:     5     4651      C       10.7137    1.0825   23.2154
  QMMM:     6     4652      C       12.0237    1.4756   23.4526
  QMMM:     7     4653      C       13.0765    0.6625   23.0519
  QMMM:     8     4654      C       12.8284   -0.5492   22.4201
  QMMM:     9     4655      C       11.5270   -0.9652   22.1731
  QMMM:    10     4656      N        7.0179   -0.0061   21.3322
  QMMM:    11     4657      C        6.3059    0.5300   20.2494
  QMMM:    12     4658      C        5.1219    1.2816   20.4555
  QMMM:    13     4659      C        4.3225    1.6106   19.3490
  QMMM:    14     4660      C        4.8029    1.2935   18.0327
  QMMM:    15     4661      N        5.9602    0.6955   17.8126
  QMMM:    16     4662      C        6.6947    0.3184   18.9290
  QMMM:    17     4663      H        8.7992   -1.4185   22.6567
  QMMM:    18     4664      H        9.8826    1.7240   23.5281
  QMMM:    19     4665      H       12.2182    2.4348   23.9417
  QMMM:    20     4666      H       14.1044    0.9971   23.2029
  QMMM:    21     4667      H       13.6631   -1.1794   22.0955
  QMMM:    22     4668      H       11.3318   -1.9169   21.6662
  QMMM:    23     4669      H        6.4929   -0.5424   22.0297
  QMMM:    24     4670      N        3.0854    2.2148   19.4957
  QMMM:    25     4671      H        4.2226    1.5805   17.1431
  QMMM:    26     4672      F        7.8374   -0.2796   18.6278
  QMMM:    27     4673      C        4.6736    1.7472   21.7388
  QMMM:    28     4674      H        5.2702    1.5782   22.6555
  QMMM:    29     4675      N        3.5270    2.3943   21.8772
  QMMM:    30     4676      C        2.7431    2.5687   20.7332
  QMMM:    31     4677      H        1.7432    3.0435   20.8859

--------------------------------------------------------------------------------
  3.1 QM CALCULATION INFO
--------------------------------------------------------------------------------

QMMM: SINGLET STATE CALCULATION
QMMM: RHF CALCULATION, NO. OF DOUBLY OCCUPIED LEVELS = 52

--------------------------------------------------------------------------------
   4.  RESULTS
 NSTEP =        0   TIME(PS) =       0.000  TEMP(K) =     0.00  PRESS =     0.0
 Etot   =    -11951.3568  EKtot   =         0.0000  EPtot      =    -11951.3568
 BOND   =       142.2946  ANGLE   =       552.6542  DIHED      =      1195.2656
 1-4 NB =       954.0676  1-4 EEL =     12133.5037  VDWAALS    =     -2645.0159
 EELEC  =    -21567.6372  EGB     =     -2937.9842  RESTRAINT  =         0.0000
 RM1ESCF=         0.8248
 CMAP   =       220.6700
 ------------------------------------------------------------------------------

      A V E R A G E S   O V E R   10000 S T E P S

 NSTEP =    10000   TIME(PS) =      20.000  TEMP(K) =   284.47  PRESS =     0.0
 Etot   =     -5207.1494  EKtot   =      3313.4431  EPtot      =     -8520.5926
 BOND   =       880.4027  ANGLE   =      2278.5550  DIHED      =      1653.9636
 1-4 NB =      1043.0691  1-4 EEL =     11989.4577  VDWAALS    =     -2376.4508
 EELEC  =    -20910.8158  EGB     =     -3332.2224  RESTRAINT  =         0.0000
 RM1ESCF=        30.8374
 CMAP   =       222.6108
 ------------------------------------------------------------------------------

      R M S  F L U C T U A T I O N S

 NSTEP =    10000   TIME(PS) =      20.000  TEMP(K) =    44.14  PRESS =     0.0
 Etot   =      1060.2413  EKtot   =       514.1580  EPtot      =       548.0815
 BOND   =       117.9650  ANGLE   =       271.7210  DIHED      =        77.2215
 1-4 NB =        19.9795  1-4 EEL =        42.9651  VDWAALS    =        51.7514
 EELEC  =       139.3138  EGB     =        98.0974  RESTRAINT  =         0.0000
 RM1ESCF=         8.6190
 CMAP   =         9.0367
 ------------------------------------------------------------------------------
