-------------------------------------------------------
          Amber 18 SANDER                              2018
          -------------------------------------------------------

  [-O]verwriting output

File Assignments:

 Here is the input file:

MD with GB7
 &cntrl
  nstlim = 10000, dt = 0.002,
  ntwr = 5000, ntwx = 500,
  ntc = 2, ntf = 2,
  ntt = 3, temp0 = 300, gamma_ln = 1.0,
  ntb = 0, igb = 7, cut = 9999.0,
  ifqnt = 1,
 /

 &qmmm
  qmmask = ':305', qmcharge = 0,
  qm_theory = 'RM1', qmcut = 20.0,
 /

--------------------------------------------------------------------------------
   1.  RESOURCE   USE:
--------------------------------------------------------------------------------

 NATOM  =    4678 NTYPES =      26 NBONH =    2311 MBONA  =    2420
 NTHETH =    5221 MTHETA =    3289 NPHIH =   10765 MPHIA  =   10490
 NHPARM =       0 NPARM  =       0 NNB   =   25734 NRES   =     305
 NBONA  =    2420 NTHETA =    3289 NPHIA =   10490 NUMBND =      87
 NUMANG =     199 NPTRA  =     207 NATYP =      47 NPHB   =       0
 IFBOX  =       0 NMXRS  =      32 IFCAP =       0 NEXTRA =       0
 NCOPY  =       0

 Implicit solvent radii are ArgH and AspGluO modified Bondi2 radii (mbondi3)
 Replacing prmtop screening parameters with GBn (igb=7) values

LOADING THE QUANTUM ATOMS AS GROUPS
     Mask :305; matches    32 atoms

--------------------------------------------------------------------------------
   2.  CONTROL  DATA  FOR  THE  RUN
--------------------------------------------------------------------------------

default_name

General flags:
     imin    =       0, nmropt  =       0

Nature and format of input:
     ntx     =       1, irest   =       0, ntrx    =       1

Nature and format of output:
     ntxo    =       2, ntpr    =      50, ntrx    =       1, ntwr    =    5000
     iwrap   =       0, ntwx    =     500, ntwv    =       0, ntwe    =       0
     ioutfm  =       1, ntwprt  =       0, idecomp =       0, rbornstat=      0

Potential function:
     ntf     =       2, ntb     =       0, igb     =       7, nsnb    =      25
     ipol    =       0, gbsa    =       0, iesp    =       0
     dielc   =   1.00000, cut     =9999.00000, intdiel =   1.00000
     saltcon =   0.00000, offset  =   0.09000, gbalpha=    1.09511
     gbbeta  =   1.90793, gbgamma =   2.50798, surften =   0.00500
     rdt     =   0.00000, rgbmax  =  25.00000  extdiel =  78.50000
     alpb  =        0

Frozen or restrained atoms:
     ibelly  =       0, ntr     =       0

Molecular dynamics:
     nstlim  =     10000, nscm    =      1000, nrespa  =         1
     t       =   0.00000, dt      =   0.00200, vlimit  =  20.00000

Langevin dynamics temperature regulation:
     ig      =   71277
     temp0   = 300.00000, tempi   =   0.00000, gamma_ln=   1.00000

SHAKE:
     ntc     =       2, jfastw  =       0
     tol     =   0.00001

QMMM options:
             ifqnt = True       nquant =       32
              qmgb =        2  qmcharge =        0   adjust_q =        2
              spin =        1     qmcut =  20.0000    qmshake =        1
          qmmm_int =        1
     lnk_atomic_no =        1   lnk_dis =   1.0900 lnk_method =        1
          qm_theory =     RM1 verbosity =        0
            qmqmdx = Analytical
      tight_p_conv = False (converge density to 0.05xSqrt[SCFCRT])
           scfconv = 0.100E-07  itrmax =     1000
      printcharges = False      printdipole = False      peptide_corr = False
    qmmmrij_incore = True
  qmqm_erep_incore = True
       pseudo_diag = True pseudo_diag_criteria =   0.0500
      diag_routine =        0
          qm_ewald =        0 qm_pme = False

--------------------------------------------------------------------------------
   3.  ATOMIC COORDINATES AND VELOCITIES
--------------------------------------------------------------------------------

default_name
 begin time read from input coords =     0.000 ps

 Number of triangulated 3-point waters found:        0
QMMM: ADJUSTING CHARGES
QMMM: ----------------------------------------------------------------------
QMMM: adjust_q = 2
QMMM: Uniformly adjusting the charge of MM atoms to conserve total charge.
QMMM:                             qm_charge =    0
QMMM: QM atom RESP charge sum (inc MM link) =    0.001
QMMM: Adjusting each MM atom resp charge by =    0.000
QMMM:          Sum of MM + QM region is now =   -2.999
QMMM: ----------------------------------------------------------------------

QMMM: Link Atom Information
QMMM: ------------------------------------------------------------------------
QMMM: nlink =     0
QMMM: ------------------------------------------------------------------------

  QMMM: QM Region Cartesian Coordinates (*=link atom)
  QMMM: QM_NO.   MM_NO.  ATOM         X         Y         Z
  QMMM:     1     4647      O        8.7057    1.1829   20.7432
  QMMM:     2     4648      C        8.1723    0.2752   21.4027
  QMMM:     3     4649      N        8.8749   -0.4547   22.3580
  QMMM:     4     4650      C       10.2282   -0.0785   22.6115
  QMMM:     5     4651      C       10.4781    1.1444   23.2369
  QMMM:     6     4652      C       11.7925    1.5293   23.4721
  QMMM:     7     4653      C       12.8408    0.7029   23.0840
  QMMM:     8     4654      C       12.5796   -0.5144   22.4637
  QMMM:     9     4655      C       11.2730   -0.9210   22.2250
  QMMM:    10     4656      N        6.8129   -0.0480   21.2180
  QMMM:    11     4657      C        6.1629    0.5046   20.0941
  QMMM:    12     4658      C        4.9996    1.2614   20.2265
  QMMM:    13     4659      C        4.3823    1.7642   19.0712
  QMMM:    14     4660      C        4.9766    1.4695   17.8095
  QMMM:    15     4661      N        6.0920    0.7493   17.6570
  QMMM:    16     4662      C        6.6746    0.2803   18.7985
  QMMM:    17     4663      H        8.5308   -1.3345   22.7383
  QMMM:    18     4664      H        9.6531    1.8004   23.5355
  QMMM:    19     4665      H       11.9940    2.4924   23.9498
  QMMM:    20     4666      H       13.8724    1.0252   23.2380
  QMMM:    21     4667      H       13.4077   -1.1517   22.1406
  QMMM:    22     4668      H       11.0723   -1.8761   21.7258
  QMMM:    23     4669      H        6.2270   -0.4334   21.9656
  QMMM:    24     4670      H        4.6026    1.4665   21.2289
  QMMM:    25     4671      N        3.1790    2.4475   19.1060
  QMMM:    26     4672      H        4.5655    1.8702   16.8745
  QMMM:    27     4673      F        7.7945   -0.3977   18.6041
  QMMM:    28     4674      C        2.6935    3.0091   20.3715
  QMMM:    29     4675      H        2.9465    2.9748   18.2617
  QMMM:    30     4676      H        1.8081    3.6418   20.1797
  QMMM:    31     4677      H        2.3859    2.2052   21.0662
  QMMM:    32     4678      H        3.4290    3.6489   20.8935

--------------------------------------------------------------------------------
  3.1 QM CALCULATION INFO
--------------------------------------------------------------------------------

QMMM: SINGLET STATE CALCULATION
QMMM: RHF CALCULATION, NO. OF DOUBLY OCCUPIED LEVELS = 49

--------------------------------------------------------------------------------
   4.  RESULTS
 NSTEP =        0   TIME(PS) =       0.000  TEMP(K) =     0.00  PRESS =     0.0
 Etot   =    -11998.3682  EKtot   =         0.0000  EPtot      =    -11998.3682
 BOND   =       142.8863  ANGLE   =       552.7659  DIHED      =      1192.3780
 1-4 NB =       951.9835  1-4 EEL =     12127.8583  VDWAALS    =     -2644.1456
 EELEC  =    -21563.1487  EGB     =     -2927.7011  RESTRAINT  =         0.0000
 RM1ESCF=       -50.6656
 CMAP   =       219.4210
 ------------------------------------------------------------------------------

      A V E R A G E S   O V E R   10000 S T E P S

 NSTEP =    10000   TIME(PS) =      20.000  TEMP(K) =   285.99  PRESS =     0.0
 Etot   =     -5201.7992  EKtot   =      3331.1489  EPtot      =     -8532.9480
 BOND   =       885.4924  ANGLE   =      2288.7103  DIHED      =      1662.4766
 1-4 NB =      1043.6575  1-4 EEL =     12015.1557  VDWAALS    =     -2363.4143
 EELEC  =    -20922.1940  EGB     =     -3352.0567  RESTRAINT  =         0.0000
 RM1ESCF=       -13.2590
 CMAP   =       222.4836
 ------------------------------------------------------------------------------

      R M S  F L U C T U A T I O N S

 NSTEP =    10000   TIME(PS) =      20.000  TEMP(K) =    44.89  PRESS =     0.0
 Etot   =      1079.8896  EKtot   =       522.8660  EPtot      =       559.0286
 BOND   =       120.6408  ANGLE   =       275.6965  DIHED      =        81.1216
 1-4 NB =        20.4475  1-4 EEL =        40.6854  VDWAALS    =        53.3101
 EELEC  =       150.8629  EGB     =       116.8678  RESTRAINT  =         0.0000
 RM1ESCF=        10.6687
 CMAP   =         8.6771
 ------------------------------------------------------------------------------
