-------------------------------------------------------
          Amber 18 SANDER                              2018
          -------------------------------------------------------

  [-O]verwriting output

File Assignments:

 Here is the input file:

MD with GB7
 &cntrl
  nstlim = 10000, dt = 0.002,
  ntwr = 5000, ntwx = 500,
  ntc = 2, ntf = 2,
  ntt = 3, temp0 = 300, gamma_ln = 1.0,
  ntb = 0, igb = 7, cut = 9999.0,
  ifqnt = 1,
 /

 &qmmm
  qmmask = ':305', qmcharge = 0,
  qm_theory = 'RM1', qmcut = 20.0,
 /

--------------------------------------------------------------------------------
   1.  RESOURCE   USE:
--------------------------------------------------------------------------------

 NATOM  =    4683 NTYPES =      27 NBONH =    2315 MBONA  =    2422
 NTHETH =    5236 MTHETA =    3293 NPHIH =   10791 MPHIA  =   10514
 NHPARM =       0 NPARM  =       0 NNB   =   25792 NRES   =     305
 NBONA  =    2422 NTHETA =    3293 NPHIA =   10514 NUMBND =      93
 NUMANG =     211 NPTRA  =     219 NATYP =      50 NPHB   =       0
 IFBOX  =       0 NMXRS  =      37 IFCAP =       0 NEXTRA =       0
 NCOPY  =       0

 Implicit solvent radii are ArgH and AspGluO modified Bondi2 radii (mbondi3)
 Replacing prmtop screening parameters with GBn (igb=7) values

LOADING THE QUANTUM ATOMS AS GROUPS
     Mask :305; matches    37 atoms

--------------------------------------------------------------------------------
   2.  CONTROL  DATA  FOR  THE  RUN
--------------------------------------------------------------------------------

default_name

General flags:
     imin    =       0, nmropt  =       0

Nature and format of input:
     ntx     =       1, irest   =       0, ntrx    =       1

Nature and format of output:
     ntxo    =       2, ntpr    =      50, ntrx    =       1, ntwr    =    5000
     iwrap   =       0, ntwx    =     500, ntwv    =       0, ntwe    =       0
     ioutfm  =       1, ntwprt  =       0, idecomp =       0, rbornstat=      0

Potential function:
     ntf     =       2, ntb     =       0, igb     =       7, nsnb    =      25
     ipol    =       0, gbsa    =       0, iesp    =       0
     dielc   =   1.00000, cut     =9999.00000, intdiel =   1.00000
     saltcon =   0.00000, offset  =   0.09000, gbalpha=    1.09511
     gbbeta  =   1.90793, gbgamma =   2.50798, surften =   0.00500
     rdt     =   0.00000, rgbmax  =  25.00000  extdiel =  78.50000
     alpb  =        0

Frozen or restrained atoms:
     ibelly  =       0, ntr     =       0

Molecular dynamics:
     nstlim  =     10000, nscm    =      1000, nrespa  =         1
     t       =   0.00000, dt      =   0.00200, vlimit  =  20.00000

Langevin dynamics temperature regulation:
     ig      =   71277
     temp0   = 300.00000, tempi   =   0.00000, gamma_ln=   1.00000

SHAKE:
     ntc     =       2, jfastw  =       0
     tol     =   0.00001

QMMM options:
             ifqnt = True       nquant =       37
              qmgb =        2  qmcharge =        0   adjust_q =        2
              spin =        1     qmcut =  20.0000    qmshake =        1
          qmmm_int =        1
     lnk_atomic_no =        1   lnk_dis =   1.0900 lnk_method =        1
          qm_theory =     RM1 verbosity =        0
            qmqmdx = Analytical
      tight_p_conv = False (converge density to 0.05xSqrt[SCFCRT])
           scfconv = 0.100E-07  itrmax =     1000
      printcharges = False      printdipole = False      peptide_corr = False
    qmmmrij_incore = True
  qmqm_erep_incore = True
       pseudo_diag = True pseudo_diag_criteria =   0.0500
      diag_routine =        0
          qm_ewald =        0 qm_pme = False

--------------------------------------------------------------------------------
   3.  ATOMIC COORDINATES AND VELOCITIES
--------------------------------------------------------------------------------

default_name
 begin time read from input coords =     0.000 ps

 Number of triangulated 3-point waters found:        0
QMMM: ADJUSTING CHARGES
QMMM: ----------------------------------------------------------------------
QMMM: adjust_q = 2
QMMM: Uniformly adjusting the charge of MM atoms to conserve total charge.
QMMM:                             qm_charge =    0
QMMM: QM atom RESP charge sum (inc MM link) =   -0.002
QMMM: Adjusting each MM atom resp charge by =   -0.000
QMMM:          Sum of MM + QM region is now =   -3.002
QMMM: ----------------------------------------------------------------------

QMMM: Link Atom Information
QMMM: ------------------------------------------------------------------------
QMMM: nlink =     0
QMMM: ------------------------------------------------------------------------

  QMMM: QM Region Cartesian Coordinates (*=link atom)
  QMMM: QM_NO.   MM_NO.  ATOM         X         Y         Z
  QMMM:     1     4647      O        9.2099    1.3190   20.9572
  QMMM:     2     4648      C        8.6230    0.7631   21.8835
  QMMM:     3     4649      C        9.2438    0.3895   23.2102
  QMMM:     4     4650      C       10.7526    0.1538   23.0784
  QMMM:     5     4651      C       11.0275   -1.0343   22.1552
  QMMM:     6     4652      C       12.2878   -1.7962   22.5518
  QMMM:     7     4653      C       13.3572   -0.8712   23.1095
  QMMM:     8     4654      C       12.8795   -0.1140   24.3459
  QMMM:     9     4655      C       11.3581   -0.1006   24.4611
  QMMM:    10     4656      N        7.2438    0.5092   21.7646
  QMMM:    11     4657      C        6.5191    0.7596   20.5938
  QMMM:    12     4658      C        5.2615    1.4412   20.7013
  QMMM:    13     4659      N        4.4815    1.6208   19.5227
  QMMM:    14     4660      C        4.9901    1.2257   18.2676
  QMMM:    15     4661      N        6.1451    0.5987   18.1721
  QMMM:    16     4662      C        6.8721    0.3453   19.3338
  QMMM:    17     4663      H        8.7601   -0.5093   23.6544
  QMMM:    18     4664      H        9.0333    1.2178   23.9263
  QMMM:    19     4665      H       11.2277    1.0696   22.6431
  QMMM:    20     4666      H       10.1688   -1.7399   22.1214
  QMMM:    21     4667      H       11.0913   -0.6709   21.1127
  QMMM:    22     4668      H       12.6786   -2.3509   21.6752
  QMMM:    23     4669      H       12.0387   -2.5864   23.2901
  QMMM:    24     4670      H       14.2671   -1.4604   23.3414
  QMMM:    25     4671      H       13.6800   -0.1608   22.3259
  QMMM:    26     4672      H       13.3306   -0.5563   25.2562
  QMMM:    27     4673      H       13.2642    0.9276   24.3132
  QMMM:    28     4674      H       11.0327    0.6752   25.1855
  QMMM:    29     4675      H       10.9770   -1.0572   24.8775
  QMMM:    30     4676      H        6.6951    0.1775   22.5655
  QMMM:    31     4677      C        4.5265    1.9824   21.7462
  QMMM:    32     4678      N        3.2898    2.2402   19.8108
  QMMM:    33     4679      H        4.4178    1.4689   17.3543
  QMMM:    34     4680      Cl       8.2614   -0.5752   19.0596
  QMMM:    35     4681      C        3.3117    2.4555   21.1565
  QMMM:    36     4682      H        2.4681    2.9375   21.6741
  QMMM:    37     4683      H        4.7919    2.0181   22.7993

--------------------------------------------------------------------------------
  3.1 QM CALCULATION INFO
--------------------------------------------------------------------------------

QMMM: SINGLET STATE CALCULATION
QMMM: RHF CALCULATION, NO. OF DOUBLY OCCUPIED LEVELS = 53

--------------------------------------------------------------------------------
   4.  RESULTS
 NSTEP =        0   TIME(PS) =       0.000  TEMP(K) =     0.00  PRESS =     0.0
 Etot   =    -11994.1199  EKtot   =         0.0000  EPtot      =    -11994.1199
 BOND   =       144.8454  ANGLE   =       553.8237  DIHED      =      1187.6581
 1-4 NB =       946.9827  1-4 EEL =     12130.9190  VDWAALS    =     -2641.7137
 EELEC  =    -21552.0180  EGB     =     -2967.3923  RESTRAINT  =         0.0000
 RM1ESCF=        -7.4155
 CMAP   =       210.1906
 ------------------------------------------------------------------------------

      A V E R A G E S   O V E R   10000 S T E P S

 NSTEP =    10000   TIME(PS) =      20.000  TEMP(K) =   286.24  PRESS =     0.0
 Etot   =     -5150.3611  EKtot   =      3337.2227  EPtot      =     -8487.5838
 BOND   =       887.8338  ANGLE   =      2287.3331  DIHED      =      1663.4312
 1-4 NB =      1044.7948  1-4 EEL =     12026.0831  VDWAALS    =     -2363.4755
 EELEC  =    -20917.3502  EGB     =     -3366.0921  RESTRAINT  =         0.0000
 RM1ESCF=        27.0803
 CMAP   =       222.7777
 ------------------------------------------------------------------------------

      R M S  F L U C T U A T I O N S

 NSTEP =    10000   TIME(PS) =      20.000  TEMP(K) =    44.83  PRESS =     0.0
 Etot   =      1080.9651  EKtot   =       522.7220  EPtot      =       560.2435
 BOND   =       119.3770  ANGLE   =       276.0224  DIHED      =        80.6416
 1-4 NB =        19.8289  1-4 EEL =        41.8623  VDWAALS    =        56.2826
 EELEC  =       148.9292  EGB     =       119.7836  RESTRAINT  =         0.0000
 RM1ESCF=         9.0617
 CMAP   =         7.5070
 ------------------------------------------------------------------------------
