-------------------------------------------------------
          Amber 18 SANDER                              2018
          -------------------------------------------------------

  [-O]verwriting output

File Assignments:

 Here is the input file:

MD with GB7
 &cntrl
  nstlim = 10000, dt = 0.002,
  ntwr = 5000, ntwx = 500,
  ntc = 2, ntf = 2,
  ntt = 3, temp0 = 300, gamma_ln = 1.0,
  ntb = 0, igb = 7, cut = 9999.0,
  ifqnt = 1,
 /

 &qmmm
  qmmask = ':305', qmcharge = 0,
  qm_theory = 'RM1', qmcut = 20.0,
 /

--------------------------------------------------------------------------------
   1.  RESOURCE   USE:
--------------------------------------------------------------------------------

 NATOM  =    4676 NTYPES =      25 NBONH =    2308 MBONA  =    2422
 NTHETH =    5215 MTHETA =    3293 NPHIH =   10759 MPHIA  =   10499
 NHPARM =       0 NPARM  =       0 NNB   =   25728 NRES   =     305
 NBONA  =    2422 NTHETA =    3293 NPHIA =   10499 NUMBND =      93
 NUMANG =     210 NPTRA  =     208 NATYP =      49 NPHB   =       0
 IFBOX  =       0 NMXRS  =      30 IFCAP =       0 NEXTRA =       0
 NCOPY  =       0

 Implicit solvent radii are ArgH and AspGluO modified Bondi2 radii (mbondi3)
 Replacing prmtop screening parameters with GBn (igb=7) values

LOADING THE QUANTUM ATOMS AS GROUPS
     Mask :305; matches    30 atoms

--------------------------------------------------------------------------------
   2.  CONTROL  DATA  FOR  THE  RUN
--------------------------------------------------------------------------------

default_name

General flags:
     imin    =       0, nmropt  =       0

Nature and format of input:
     ntx     =       1, irest   =       0, ntrx    =       1

Nature and format of output:
     ntxo    =       2, ntpr    =      50, ntrx    =       1, ntwr    =    5000
     iwrap   =       0, ntwx    =     500, ntwv    =       0, ntwe    =       0
     ioutfm  =       1, ntwprt  =       0, idecomp =       0, rbornstat=      0

Potential function:
     ntf     =       2, ntb     =       0, igb     =       7, nsnb    =      25
     ipol    =       0, gbsa    =       0, iesp    =       0
     dielc   =   1.00000, cut     =9999.00000, intdiel =   1.00000
     saltcon =   0.00000, offset  =   0.09000, gbalpha=    1.09511
     gbbeta  =   1.90793, gbgamma =   2.50798, surften =   0.00500
     rdt     =   0.00000, rgbmax  =  25.00000  extdiel =  78.50000
     alpb  =        0

Frozen or restrained atoms:
     ibelly  =       0, ntr     =       0

Molecular dynamics:
     nstlim  =     10000, nscm    =      1000, nrespa  =         1
     t       =   0.00000, dt      =   0.00200, vlimit  =  20.00000

Langevin dynamics temperature regulation:
     ig      =   71277
     temp0   = 300.00000, tempi   =   0.00000, gamma_ln=   1.00000

SHAKE:
     ntc     =       2, jfastw  =       0
     tol     =   0.00001

QMMM options:
             ifqnt = True       nquant =       30
              qmgb =        2  qmcharge =        0   adjust_q =        2
              spin =        1     qmcut =  20.0000    qmshake =        1
          qmmm_int =        1
     lnk_atomic_no =        1   lnk_dis =   1.0900 lnk_method =        1
          qm_theory =     RM1 verbosity =        0
            qmqmdx = Analytical
      tight_p_conv = False (converge density to 0.05xSqrt[SCFCRT])
           scfconv = 0.100E-07  itrmax =     1000
      printcharges = False      printdipole = False      peptide_corr = False
    qmmmrij_incore = True
  qmqm_erep_incore = True
       pseudo_diag = True pseudo_diag_criteria =   0.0500
      diag_routine =        0
          qm_ewald =        0 qm_pme = False

--------------------------------------------------------------------------------
   3.  ATOMIC COORDINATES AND VELOCITIES
--------------------------------------------------------------------------------

default_name
 begin time read from input coords =     0.000 ps

 Number of triangulated 3-point waters found:        0
QMMM: ADJUSTING CHARGES
QMMM: ----------------------------------------------------------------------
QMMM: adjust_q = 2
QMMM: Uniformly adjusting the charge of MM atoms to conserve total charge.
QMMM:                             qm_charge =    0
QMMM: QM atom RESP charge sum (inc MM link) =    0.000
QMMM: Adjusting each MM atom resp charge by =    0.000
QMMM:          Sum of MM + QM region is now =   -3.000
QMMM: ----------------------------------------------------------------------

QMMM: Link Atom Information
QMMM: ------------------------------------------------------------------------
QMMM: nlink =     0
QMMM: ------------------------------------------------------------------------

  QMMM: QM Region Cartesian Coordinates (*=link atom)
  QMMM: QM_NO.   MM_NO.  ATOM         X         Y         Z
  QMMM:     1     4647      O        8.6684    1.2375   20.7554
  QMMM:     2     4648      C        8.2436    0.2256   21.3315
  QMMM:     3     4649      N        9.0345   -0.5820   22.1420
  QMMM:     4     4650      C       10.3582   -0.1487   22.4433
  QMMM:     5     4651      C       10.5435    1.0828   23.0751
  QMMM:     6     4652      C       11.8321    1.4997   23.3827
  QMMM:     7     4653      C       12.9195    0.6980   23.0604
  QMMM:     8     4654      C       12.7231   -0.5285   22.4376
  QMMM:     9     4655      C       11.4441   -0.9694   22.1278
  QMMM:    10     4656      N        6.8776   -0.1311   21.2402
  QMMM:    11     4657      C        6.1196    0.3871   20.1860
  QMMM:    12     4658      C        4.8782    1.0474   20.4441
  QMMM:    13     4659      N        4.1472    1.5344   19.3190
  QMMM:    14     4660      C        4.6558    1.4070   18.0105
  QMMM:    15     4661      N        5.7935    0.7819   17.7832
  QMMM:    16     4662      C        6.4945    0.2774   18.8712
  QMMM:    17     4663      H        8.7765   -1.5453   22.3606
  QMMM:    18     4664      H        9.6894    1.7205   23.3284
  QMMM:    19     4665      H       11.9835    2.4680   23.8721
  QMMM:    20     4666      H       13.9336    1.0465   23.2712
  QMMM:    21     4667      H       13.5835   -1.1483   22.1666
  QMMM:    22     4668      H       11.2960   -1.9358   21.6314
  QMMM:    23     4669      H        6.3949   -0.6555   21.9709
  QMMM:    24     4670      N        2.9826    2.1371   19.7169
  QMMM:    25     4671      H        4.0875    1.8596   17.1748
  QMMM:    26     4672      Cl       7.9303   -0.5101   18.4578
  QMMM:    27     4673      C        4.1298    1.3610   21.5691
  QMMM:    28     4674      H        4.3647    1.1540   22.6108
  QMMM:    29     4675      C        2.9678    2.0359   21.0742
  QMMM:    30     4676      H        2.1373    2.4441   21.6675

--------------------------------------------------------------------------------
  3.1 QM CALCULATION INFO
--------------------------------------------------------------------------------

QMMM: SINGLET STATE CALCULATION
QMMM: RHF CALCULATION, NO. OF DOUBLY OCCUPIED LEVELS = 50

--------------------------------------------------------------------------------
   4.  RESULTS
 NSTEP =        0   TIME(PS) =       0.000  TEMP(K) =     0.00  PRESS =     0.0
 Etot   =    -11941.4679  EKtot   =         0.0000  EPtot      =    -11941.4679
 BOND   =       144.2658  ANGLE   =       553.8873  DIHED      =      1188.1453
 1-4 NB =       948.7008  1-4 EEL =     12125.3255  VDWAALS    =     -2642.1563
 EELEC  =    -21570.4982  EGB     =     -2954.3022  RESTRAINT  =         0.0000
 RM1ESCF=        50.2083
 CMAP   =       214.9558
 ------------------------------------------------------------------------------

      A V E R A G E S   O V E R   10000 S T E P S

 NSTEP =    10000   TIME(PS) =      20.000  TEMP(K) =   285.26  PRESS =     0.0
 Etot   =     -5130.1116  EKtot   =      3321.8776  EPtot      =     -8451.9892
 BOND   =       886.7358  ANGLE   =      2280.0609  DIHED      =      1659.9185
 1-4 NB =      1043.2954  1-4 EEL =     12000.0805  VDWAALS    =     -2360.5200
 EELEC  =    -20886.9911  EGB     =     -3373.7211  RESTRAINT  =         0.0000
 RM1ESCF=        74.7445
 CMAP   =       224.4074
 ------------------------------------------------------------------------------

      R M S  F L U C T U A T I O N S

 NSTEP =    10000   TIME(PS) =      20.000  TEMP(K) =    45.14  PRESS =     0.0
 Etot   =      1088.2413  EKtot   =       525.6377  EPtot      =       564.5967
 BOND   =       120.7736  ANGLE   =       275.6235  DIHED      =        79.2032
 1-4 NB =        20.2409  1-4 EEL =        44.2563  VDWAALS    =        60.6084
 EELEC  =       168.4550  EGB     =       129.0255  RESTRAINT  =         0.0000
 RM1ESCF=         6.5269
 CMAP   =         8.7227
 ------------------------------------------------------------------------------
