-------------------------------------------------------
          Amber 18 SANDER                              2018
          -------------------------------------------------------

  [-O]verwriting output

File Assignments:

 Here is the input file:

MD with GB7
 &cntrl
  nstlim = 10000, dt = 0.002,
  ntwr = 5000, ntwx = 500,
  ntc = 2, ntf = 2,
  ntt = 3, temp0 = 300, gamma_ln = 1.0,
  ntb = 0, igb = 7, cut = 9999.0,
  ifqnt = 1,
 /

 &qmmm
  qmmask = ':305', qmcharge = 0,
  qm_theory = 'RM1', qmcut = 20.0,
 /

--------------------------------------------------------------------------------
   1.  RESOURCE   USE:
--------------------------------------------------------------------------------

 NATOM  =    4681 NTYPES =      26 NBONH =    2313 MBONA  =    2421
 NTHETH =    5225 MTHETA =    3291 NPHIH =   10768 MPHIA  =   10493
 NHPARM =       0 NPARM  =       0 NNB   =   25750 NRES   =     305
 NBONA  =    2421 NTHETA =    3291 NPHIA =   10493 NUMBND =      86
 NUMANG =     198 NPTRA  =     206 NATYP =      47 NPHB   =       0
 IFBOX  =       0 NMXRS  =      35 IFCAP =       0 NEXTRA =       0
 NCOPY  =       0

 Implicit solvent radii are ArgH and AspGluO modified Bondi2 radii (mbondi3)
 Replacing prmtop screening parameters with GBn (igb=7) values

LOADING THE QUANTUM ATOMS AS GROUPS
     Mask :305; matches    35 atoms

--------------------------------------------------------------------------------
   2.  CONTROL  DATA  FOR  THE  RUN
--------------------------------------------------------------------------------

default_name

General flags:
     imin    =       0, nmropt  =       0

Nature and format of input:
     ntx     =       1, irest   =       0, ntrx    =       1

Nature and format of output:
     ntxo    =       2, ntpr    =      50, ntrx    =       1, ntwr    =    5000
     iwrap   =       0, ntwx    =     500, ntwv    =       0, ntwe    =       0
     ioutfm  =       1, ntwprt  =       0, idecomp =       0, rbornstat=      0

Potential function:
     ntf     =       2, ntb     =       0, igb     =       7, nsnb    =      25
     ipol    =       0, gbsa    =       0, iesp    =       0
     dielc   =   1.00000, cut     =9999.00000, intdiel =   1.00000
     saltcon =   0.00000, offset  =   0.09000, gbalpha=    1.09511
     gbbeta  =   1.90793, gbgamma =   2.50798, surften =   0.00500
     rdt     =   0.00000, rgbmax  =  25.00000  extdiel =  78.50000
     alpb  =        0

Frozen or restrained atoms:
     ibelly  =       0, ntr     =       0

Molecular dynamics:
     nstlim  =     10000, nscm    =      1000, nrespa  =         1
     t       =   0.00000, dt      =   0.00200, vlimit  =  20.00000

Langevin dynamics temperature regulation:
     ig      =   71277
     temp0   = 300.00000, tempi   =   0.00000, gamma_ln=   1.00000

SHAKE:
     ntc     =       2, jfastw  =       0
     tol     =   0.00001

QMMM options:
             ifqnt = True       nquant =       35
              qmgb =        2  qmcharge =        0   adjust_q =        2
              spin =        1     qmcut =  20.0000    qmshake =        1
          qmmm_int =        1
     lnk_atomic_no =        1   lnk_dis =   1.0900 lnk_method =        1
          qm_theory =     RM1 verbosity =        0
            qmqmdx = Analytical
      tight_p_conv = False (converge density to 0.05xSqrt[SCFCRT])
           scfconv = 0.100E-07  itrmax =     1000
      printcharges = False      printdipole = False      peptide_corr = False
    qmmmrij_incore = True
  qmqm_erep_incore = True
       pseudo_diag = True pseudo_diag_criteria =   0.0500
      diag_routine =        0
          qm_ewald =        0 qm_pme = False

--------------------------------------------------------------------------------
   3.  ATOMIC COORDINATES AND VELOCITIES
--------------------------------------------------------------------------------

default_name
 begin time read from input coords =     0.000 ps

 Number of triangulated 3-point waters found:        0
QMMM: ADJUSTING CHARGES
QMMM: ----------------------------------------------------------------------
QMMM: adjust_q = 2
QMMM: Uniformly adjusting the charge of MM atoms to conserve total charge.
QMMM:                             qm_charge =    0
QMMM: QM atom RESP charge sum (inc MM link) =   -0.001
QMMM: Adjusting each MM atom resp charge by =   -0.000
QMMM:          Sum of MM + QM region is now =   -3.001
QMMM: ----------------------------------------------------------------------

QMMM: Link Atom Information
QMMM: ------------------------------------------------------------------------
QMMM: nlink =     0
QMMM: ------------------------------------------------------------------------

  QMMM: QM Region Cartesian Coordinates (*=link atom)
  QMMM: QM_NO.   MM_NO.  ATOM         X         Y         Z
  QMMM:     1     4647      O        8.6225    1.2047   20.7285
  QMMM:     2     4648      C        8.2177    0.1890   21.3147
  QMMM:     3     4649      N        9.0370   -0.6095   22.1074
  QMMM:     4     4650      C       10.3466   -0.1564   22.4303
  QMMM:     5     4651      C       10.4983    1.0739   23.0734
  QMMM:     6     4652      C       11.7749    1.5102   23.4001
  QMMM:     7     4653      C       12.8792    0.7251   23.0962
  QMMM:     8     4654      C       12.7136   -0.5043   22.4711
  QMMM:     9     4655      C       11.4479   -0.9672   22.1431
  QMMM:    10     4656      N        6.8620   -0.1909   21.2535
  QMMM:    11     4657      C        6.0823    0.4333   20.2617
  QMMM:    12     4658      C        4.9455    1.1708   20.5856
  QMMM:    13     4659      C        4.1896    1.7393   19.5513
  QMMM:    14     4660      C        4.6422    1.5452   18.2134
  QMMM:    15     4661      N        5.7548    0.8587   17.8941
  QMMM:    16     4662      C        6.4390    0.3062   18.9131
  QMMM:    17     4663      H        8.7942   -1.5775   22.3118
  QMMM:    18     4664      H        9.6250    1.6840   23.3294
  QMMM:    19     4665      H       11.9010    2.4754   23.8985
  QMMM:    20     4666      H       13.8845    1.0833   23.3311
  QMMM:    21     4667      H       13.5846   -1.1138   22.2180
  QMMM:    22     4668      H       11.3179   -1.9456   21.6654
  QMMM:    23     4669      H        6.3824   -0.6901   22.0059
  QMMM:    24     4670      H        4.6645    1.2864   21.6406
  QMMM:    25     4671      N        2.9397    2.3340   19.8171
  QMMM:    26     4672      H        4.0885    1.9387   17.3485
  QMMM:    27     4673      Cl       7.8017   -0.6270   18.4926
  QMMM:    28     4674      C        2.6999    2.7812   21.2186
  QMMM:    29     4675      C        2.5022    3.3908   18.8724
  QMMM:    30     4676      H        1.6851    3.2077   21.2905
  QMMM:    31     4677      H        2.7353    1.9245   21.9154
  QMMM:    32     4678      H        3.4026    3.5520   21.5856
  QMMM:    33     4679      H        1.4028    3.4524   18.9077
  QMMM:    34     4680      H        2.7884    3.1795   17.8253
  QMMM:    35     4681      H        2.8984    4.3947   19.1078

--------------------------------------------------------------------------------
  3.1 QM CALCULATION INFO
--------------------------------------------------------------------------------

QMMM: SINGLET STATE CALCULATION
QMMM: RHF CALCULATION, NO. OF DOUBLY OCCUPIED LEVELS = 52

--------------------------------------------------------------------------------
   4.  RESULTS
 NSTEP =        0   TIME(PS) =       0.000  TEMP(K) =     0.00  PRESS =     0.0
 Etot   =    -11991.4290  EKtot   =         0.0000  EPtot      =    -11991.4290
 BOND   =       144.7422  ANGLE   =       555.2790  DIHED      =      1186.5295
 1-4 NB =       947.9193  1-4 EEL =     12116.9120  VDWAALS    =     -2644.9994
 EELEC  =    -21556.7999  EGB     =     -2945.3001  RESTRAINT  =         0.0000
 RM1ESCF=        -8.5140
 CMAP   =       212.8025
 ------------------------------------------------------------------------------

      A V E R A G E S   O V E R   10000 S T E P S

 NSTEP =    10000   TIME(PS) =      20.000  TEMP(K) =   285.33  PRESS =     0.0
 Etot   =     -5184.7159  EKtot   =      3325.4288  EPtot      =     -8510.1447
 BOND   =       884.7889  ANGLE   =      2283.1581  DIHED      =      1660.3661
 1-4 NB =      1043.8838  1-4 EEL =     12002.4134  VDWAALS    =     -2385.0174
 EELEC  =    -20916.2677  EGB     =     -3332.8236  RESTRAINT  =         0.0000
 RM1ESCF=        23.9670
 CMAP   =       225.3867
 ------------------------------------------------------------------------------

      R M S  F L U C T U A T I O N S

 NSTEP =    10000   TIME(PS) =      20.000  TEMP(K) =    45.25  PRESS =     0.0
 Etot   =      1086.2923  EKtot   =       527.3687  EPtot      =       560.8338
 BOND   =       120.6225  ANGLE   =       276.9178  DIHED      =        80.8284
 1-4 NB =        20.4778  1-4 EEL =        41.2129  VDWAALS    =        51.0547
 EELEC  =       146.8439  EGB     =       109.7113  RESTRAINT  =         0.0000
 RM1ESCF=         8.1895
 CMAP   =         8.2062
 ------------------------------------------------------------------------------
