-------------------------------------------------------
          Amber 18 SANDER                              2018
          -------------------------------------------------------

  [-O]verwriting output

File Assignments:

 Here is the input file:

MD with GB7
 &cntrl
  nstlim = 10000, dt = 0.002,
  ntwr = 5000, ntwx = 500,
  ntc = 2, ntf = 2,
  ntt = 3, temp0 = 300, gamma_ln = 1.0,
  ntb = 0, igb = 7, cut = 9999.0,
  ifqnt = 1,
 /

 &qmmm
  qmmask = ':305', qmcharge = 0,
  qm_theory = 'RM1', qmcut = 20.0,
 /

--------------------------------------------------------------------------------
   1.  RESOURCE   USE:
--------------------------------------------------------------------------------

 NATOM  =    4683 NTYPES =      25 NBONH =    2315 MBONA  =    2422
 NTHETH =    5236 MTHETA =    3293 NPHIH =   10791 MPHIA  =   10515
 NHPARM =       0 NPARM  =       0 NNB   =   25793 NRES   =     305
 NBONA  =    2422 NTHETA =    3293 NPHIA =   10515 NUMBND =      91
 NUMANG =     207 NPTRA  =     221 NATYP =      48 NPHB   =       0
 IFBOX  =       0 NMXRS  =      37 IFCAP =       0 NEXTRA =       0
 NCOPY  =       0

 Implicit solvent radii are ArgH and AspGluO modified Bondi2 radii (mbondi3)
 Replacing prmtop screening parameters with GBn (igb=7) values

LOADING THE QUANTUM ATOMS AS GROUPS
     Mask :305; matches    37 atoms

--------------------------------------------------------------------------------
   2.  CONTROL  DATA  FOR  THE  RUN
--------------------------------------------------------------------------------

default_name

General flags:
     imin    =       0, nmropt  =       0

Nature and format of input:
     ntx     =       1, irest   =       0, ntrx    =       1

Nature and format of output:
     ntxo    =       2, ntpr    =      50, ntrx    =       1, ntwr    =    5000
     iwrap   =       0, ntwx    =     500, ntwv    =       0, ntwe    =       0
     ioutfm  =       1, ntwprt  =       0, idecomp =       0, rbornstat=      0

Potential function:
     ntf     =       2, ntb     =       0, igb     =       7, nsnb    =      25
     ipol    =       0, gbsa    =       0, iesp    =       0
     dielc   =   1.00000, cut     =9999.00000, intdiel =   1.00000
     saltcon =   0.00000, offset  =   0.09000, gbalpha=    1.09511
     gbbeta  =   1.90793, gbgamma =   2.50798, surften =   0.00500
     rdt     =   0.00000, rgbmax  =  25.00000  extdiel =  78.50000
     alpb  =        0

Frozen or restrained atoms:
     ibelly  =       0, ntr     =       0

Molecular dynamics:
     nstlim  =     10000, nscm    =      1000, nrespa  =         1
     t       =   0.00000, dt      =   0.00200, vlimit  =  20.00000

Langevin dynamics temperature regulation:
     ig      =   71277
     temp0   = 300.00000, tempi   =   0.00000, gamma_ln=   1.00000

SHAKE:
     ntc     =       2, jfastw  =       0
     tol     =   0.00001

QMMM options:
             ifqnt = True       nquant =       37
              qmgb =        2  qmcharge =        0   adjust_q =        2
              spin =        1     qmcut =  20.0000    qmshake =        1
          qmmm_int =        1
     lnk_atomic_no =        1   lnk_dis =   1.0900 lnk_method =        1
          qm_theory =     RM1 verbosity =        0
            qmqmdx = Analytical
      tight_p_conv = False (converge density to 0.05xSqrt[SCFCRT])
           scfconv = 0.100E-07  itrmax =     1000
      printcharges = False      printdipole = False      peptide_corr = False
    qmmmrij_incore = True
  qmqm_erep_incore = True
       pseudo_diag = True pseudo_diag_criteria =   0.0500
      diag_routine =        0
          qm_ewald =        0 qm_pme = False

--------------------------------------------------------------------------------
   3.  ATOMIC COORDINATES AND VELOCITIES
--------------------------------------------------------------------------------

default_name
 begin time read from input coords =     0.000 ps

 Number of triangulated 3-point waters found:        0
QMMM: ADJUSTING CHARGES
QMMM: ----------------------------------------------------------------------
QMMM: adjust_q = 2
QMMM: Uniformly adjusting the charge of MM atoms to conserve total charge.
QMMM:                             qm_charge =    0
QMMM: QM atom RESP charge sum (inc MM link) =   -0.002
QMMM: Adjusting each MM atom resp charge by =   -0.000
QMMM:          Sum of MM + QM region is now =   -3.002
QMMM: ----------------------------------------------------------------------

QMMM: Link Atom Information
QMMM: ------------------------------------------------------------------------
QMMM: nlink =     0
QMMM: ------------------------------------------------------------------------

  QMMM: QM Region Cartesian Coordinates (*=link atom)
  QMMM: QM_NO.   MM_NO.  ATOM         X         Y         Z
  QMMM:     1     4647      O        9.1198    1.3886   20.9581
  QMMM:     2     4648      C        8.4943    0.8367   21.8614
  QMMM:     3     4649      C        9.0738    0.4596   23.2071
  QMMM:     4     4650      C       10.5812    0.2003   23.0968
  QMMM:     5     4651      C       10.8530   -0.9700   22.1489
  QMMM:     6     4652      C       12.1427   -1.7131   22.4931
  QMMM:     7     4653      C       13.1836   -0.7757   23.0840
  QMMM:     8     4654      C       12.6900   -0.1526   24.3869
  QMMM:     9     4655      C       11.1654   -0.1122   24.4751
  QMMM:    10     4656      N        7.1193    0.5912   21.6931
  QMMM:    11     4657      C        6.4763    0.8297   20.4720
  QMMM:    12     4658      C        5.2933    1.5899   20.4064
  QMMM:    13     4659      C        4.7084    1.8482   19.1407
  QMMM:    14     4660      C        5.2996    1.3427   17.9576
  QMMM:    15     4661      N        6.3907    0.5889   18.0242
  QMMM:    16     4662      C        6.9342    0.3298   19.2551
  QMMM:    17     4663      H        8.5619   -0.4275   23.6460
  QMMM:    18     4664      H        8.8683    1.2977   23.9117
  QMMM:    19     4665      H       11.0811    1.1214   22.7002
  QMMM:    20     4666      H       10.0107   -1.6940   22.1397
  QMMM:    21     4667      H       10.8867   -0.5907   21.1093
  QMMM:    22     4668      H       12.5430   -2.2095   21.5860
  QMMM:    23     4669      H       11.9417   -2.5487   23.1968
  QMMM:    24     4670      H       14.1383   -1.3185   23.2491
  QMMM:    25     4671      H       13.4405    0.0152   22.3537
  QMMM:    26     4672      H       13.1105   -0.7100   25.2473
  QMMM:    27     4673      H       13.1023    0.8728   24.4854
  QMMM:    28     4674      H       10.8430    0.6356   25.2288
  QMMM:    29     4675      H       10.7656   -1.0763   24.8521
  QMMM:    30     4676      H        6.5268    0.3375   22.4894
  QMMM:    31     4677      C        4.4290    2.2249   21.3647
  QMMM:    32     4678      N        3.5497    2.5749   19.3780
  QMMM:    33     4679      H        4.9041    1.5807   16.9672
  QMMM:    34     4680      Cl       8.2805   -0.7112   19.2007
  QMMM:    35     4681      N        3.4017    2.8161   20.7157
  QMMM:    36     4682      H        3.0018    3.0861   18.6811
  QMMM:    37     4683      H        4.5319    2.2391   22.4563

--------------------------------------------------------------------------------
  3.1 QM CALCULATION INFO
--------------------------------------------------------------------------------

QMMM: SINGLET STATE CALCULATION
QMMM: RHF CALCULATION, NO. OF DOUBLY OCCUPIED LEVELS = 53

--------------------------------------------------------------------------------
   4.  RESULTS
 NSTEP =        0   TIME(PS) =       0.000  TEMP(K) =     0.00  PRESS =     0.0
 Etot   =    -12007.7303  EKtot   =         0.0000  EPtot      =    -12007.7303
 BOND   =       145.5328  ANGLE   =       554.8441  DIHED      =      1186.8688
 1-4 NB =       946.3573  1-4 EEL =     12125.8894  VDWAALS    =     -2641.3395
 EELEC  =    -21544.3025  EGB     =     -2957.2950  RESTRAINT  =         0.0000
 RM1ESCF=       -33.3023
 CMAP   =       209.0166
 ------------------------------------------------------------------------------

      A V E R A G E S   O V E R   10000 S T E P S

 NSTEP =    10000   TIME(PS) =      20.000  TEMP(K) =   286.87  PRESS =     0.0
 Etot   =     -5147.9926  EKtot   =      3344.5597  EPtot      =     -8492.5523
 BOND   =       886.7374  ANGLE   =      2288.7999  DIHED      =      1667.5494
 1-4 NB =      1044.2229  1-4 EEL =     12024.7316  VDWAALS    =     -2369.4924
 EELEC  =    -20882.0911  EGB     =     -3390.4241  RESTRAINT  =         0.0000
 RM1ESCF=        13.4811
 CMAP   =       223.9330
 ------------------------------------------------------------------------------

      R M S  F L U C T U A T I O N S

 NSTEP =    10000   TIME(PS) =      20.000  TEMP(K) =    45.05  PRESS =     0.0
 Etot   =      1085.6557  EKtot   =       525.1943  EPtot      =       562.3913
 BOND   =       118.9398  ANGLE   =       276.0308  DIHED      =        81.8550
 1-4 NB =        19.5479  1-4 EEL =        40.8790  VDWAALS    =        54.8903
 EELEC  =       175.1911  EGB     =       148.8704  RESTRAINT  =         0.0000
 RM1ESCF=        10.8871
 CMAP   =         8.3294
 ------------------------------------------------------------------------------
