-------------------------------------------------------
          Amber 18 SANDER                              2018
          -------------------------------------------------------

  [-O]verwriting output

File Assignments:

 Here is the input file:

MD with GB7
 &cntrl
  nstlim = 10000, dt = 0.002,
  ntwr = 5000, ntwx = 500,
  ntc = 2, ntf = 2,
  ntt = 3, temp0 = 300, gamma_ln = 1.0,
  ntb = 0, igb = 7, cut = 9999.0,
  ifqnt = 1,
 /

 &qmmm
  qmmask = ':305', qmcharge = 0,
  qm_theory = 'RM1', qmcut = 20.0,
 /

--------------------------------------------------------------------------------
   1.  RESOURCE   USE:
--------------------------------------------------------------------------------

 NATOM  =    4683 NTYPES =      26 NBONH =    2315 MBONA  =    2422
 NTHETH =    5236 MTHETA =    3293 NPHIH =   10791 MPHIA  =   10515
 NHPARM =       0 NPARM  =       0 NNB   =   25792 NRES   =     305
 NBONA  =    2422 NTHETA =    3293 NPHIA =   10515 NUMBND =      91
 NUMANG =     207 NPTRA  =     221 NATYP =      49 NPHB   =       0
 IFBOX  =       0 NMXRS  =      37 IFCAP =       0 NEXTRA =       0
 NCOPY  =       0

 Implicit solvent radii are ArgH and AspGluO modified Bondi2 radii (mbondi3)
 Replacing prmtop screening parameters with GBn (igb=7) values

LOADING THE QUANTUM ATOMS AS GROUPS
     Mask :305; matches    37 atoms

--------------------------------------------------------------------------------
   2.  CONTROL  DATA  FOR  THE  RUN
--------------------------------------------------------------------------------

default_name

General flags:
     imin    =       0, nmropt  =       0

Nature and format of input:
     ntx     =       1, irest   =       0, ntrx    =       1

Nature and format of output:
     ntxo    =       2, ntpr    =      50, ntrx    =       1, ntwr    =    5000
     iwrap   =       0, ntwx    =     500, ntwv    =       0, ntwe    =       0
     ioutfm  =       1, ntwprt  =       0, idecomp =       0, rbornstat=      0

Potential function:
     ntf     =       2, ntb     =       0, igb     =       7, nsnb    =      25
     ipol    =       0, gbsa    =       0, iesp    =       0
     dielc   =   1.00000, cut     =9999.00000, intdiel =   1.00000
     saltcon =   0.00000, offset  =   0.09000, gbalpha=    1.09511
     gbbeta  =   1.90793, gbgamma =   2.50798, surften =   0.00500
     rdt     =   0.00000, rgbmax  =  25.00000  extdiel =  78.50000
     alpb  =        0

Frozen or restrained atoms:
     ibelly  =       0, ntr     =       0

Molecular dynamics:
     nstlim  =     10000, nscm    =      1000, nrespa  =         1
     t       =   0.00000, dt      =   0.00200, vlimit  =  20.00000

Langevin dynamics temperature regulation:
     ig      =   71277
     temp0   = 300.00000, tempi   =   0.00000, gamma_ln=   1.00000

SHAKE:
     ntc     =       2, jfastw  =       0
     tol     =   0.00001

QMMM options:
             ifqnt = True       nquant =       37
              qmgb =        2  qmcharge =        0   adjust_q =        2
              spin =        1     qmcut =  20.0000    qmshake =        1
          qmmm_int =        1
     lnk_atomic_no =        1   lnk_dis =   1.0900 lnk_method =        1
          qm_theory =     RM1 verbosity =        0
            qmqmdx = Analytical
      tight_p_conv = False (converge density to 0.05xSqrt[SCFCRT])
           scfconv = 0.100E-07  itrmax =     1000
      printcharges = False      printdipole = False      peptide_corr = False
    qmmmrij_incore = True
  qmqm_erep_incore = True
       pseudo_diag = True pseudo_diag_criteria =   0.0500
      diag_routine =        0
          qm_ewald =        0 qm_pme = False

--------------------------------------------------------------------------------
   3.  ATOMIC COORDINATES AND VELOCITIES
--------------------------------------------------------------------------------

default_name
 begin time read from input coords =     0.000 ps

 Number of triangulated 3-point waters found:        0
QMMM: ADJUSTING CHARGES
QMMM: ----------------------------------------------------------------------
QMMM: adjust_q = 2
QMMM: Uniformly adjusting the charge of MM atoms to conserve total charge.
QMMM:                             qm_charge =    0
QMMM: QM atom RESP charge sum (inc MM link) =    0.002
QMMM: Adjusting each MM atom resp charge by =    0.000
QMMM:          Sum of MM + QM region is now =   -2.998
QMMM: ----------------------------------------------------------------------

QMMM: Link Atom Information
QMMM: ------------------------------------------------------------------------
QMMM: nlink =     0
QMMM: ------------------------------------------------------------------------

  QMMM: QM Region Cartesian Coordinates (*=link atom)
  QMMM: QM_NO.   MM_NO.  ATOM         X         Y         Z
  QMMM:     1     4647      O        9.1040    1.3887   20.9339
  QMMM:     2     4648      C        8.4972    0.8580   21.8632
  QMMM:     3     4649      C        9.1035    0.5057   23.2047
  QMMM:     4     4650      C       10.6044    0.2219   23.0853
  QMMM:     5     4651      C       10.8582   -0.9610   22.1522
  QMMM:     6     4652      C       12.1345   -1.7199   22.5061
  QMMM:     7     4653      C       13.1946   -0.7926   23.0789
  QMMM:     8     4654      C       12.7160   -0.1304   24.3692
  QMMM:     9     4655      C       11.1931   -0.0769   24.4646
  QMMM:    10     4656      N        7.1207    0.6020   21.7241
  QMMM:    11     4657      C        6.4610    0.8486   20.5106
  QMMM:    12     4658      C        5.3032    1.6558   20.4452
  QMMM:    13     4659      C        4.7025    1.9119   19.1813
  QMMM:    14     4660      C        5.2446    1.3470   18.0093
  QMMM:    15     4661      N        6.3210    0.5629   18.0690
  QMMM:    16     4662      C        6.8823    0.3211   19.2906
  QMMM:    17     4663      H        8.5800   -0.3618   23.6672
  QMMM:    18     4664      H        8.9188    1.3652   23.8869
  QMMM:    19     4665      H       11.1104    1.1319   22.6722
  QMMM:    20     4666      H       10.0040   -1.6716   22.1480
  QMMM:    21     4667      H       10.8986   -0.5916   21.1102
  QMMM:    22     4668      H       12.5249   -2.2400   21.6066
  QMMM:    23     4669      H       11.9206   -2.5393   23.2249
  QMMM:    24     4670      H       14.1383   -1.3528   23.2540
  QMMM:    25     4671      H       13.4696   -0.0217   22.3331
  QMMM:    26     4672      H       13.1411   -0.6660   25.2416
  QMMM:    27     4673      H       13.1354    0.8954   24.4326
  QMMM:    28     4674      H       10.8816    0.6800   25.2106
  QMMM:    29     4675      H       10.7883   -1.0318   24.8576
  QMMM:    30     4676      H        6.5280    0.4027   22.5358
  QMMM:    31     4677      N        4.5839    2.3137   21.4550
  QMMM:    32     4678      N        3.6008    2.7275   19.4311
  QMMM:    33     4679      H        4.8335    1.5531   17.0166
  QMMM:    34     4680      Cl       8.2229   -0.7288   19.2248
  QMMM:    35     4681      C        3.5792    2.9582   20.8156
  QMMM:    36     4682      H        2.8046    3.5771   21.3182
  QMMM:    37     4683      H        3.0738    3.2163   18.7128

--------------------------------------------------------------------------------
  3.1 QM CALCULATION INFO
--------------------------------------------------------------------------------

QMMM: SINGLET STATE CALCULATION
QMMM: RHF CALCULATION, NO. OF DOUBLY OCCUPIED LEVELS = 53

--------------------------------------------------------------------------------
   4.  RESULTS
 NSTEP =        0   TIME(PS) =       0.000  TEMP(K) =     0.00  PRESS =     0.0
 Etot   =    -12025.5628  EKtot   =         0.0000  EPtot      =    -12025.5628
 BOND   =       145.3736  ANGLE   =       555.6102  DIHED      =      1187.9790
 1-4 NB =       946.2349  1-4 EEL =     12126.7558  VDWAALS    =     -2642.4290
 EELEC  =    -21544.5784  EGB     =     -2959.3778  RESTRAINT  =         0.0000
 RM1ESCF=       -50.0903
 CMAP   =       208.9593
 ------------------------------------------------------------------------------

      A V E R A G E S   O V E R   10000 S T E P S

 NSTEP =    10000   TIME(PS) =      20.000  TEMP(K) =   286.39  PRESS =     0.0
 Etot   =     -5183.4577  EKtot   =      3339.0066  EPtot      =     -8522.4643
 BOND   =       887.1811  ANGLE   =      2286.2100  DIHED      =      1664.4994
 1-4 NB =      1046.2172  1-4 EEL =     12036.0875  VDWAALS    =     -2364.9999
 EELEC  =    -20945.5008  EGB     =     -3342.8697  RESTRAINT  =         0.0000
 RM1ESCF=        -9.8080
 CMAP   =       220.5189
 ------------------------------------------------------------------------------

      R M S  F L U C T U A T I O N S

 NSTEP =    10000   TIME(PS) =      20.000  TEMP(K) =    44.87  PRESS =     0.0
 Etot   =      1079.7618  EKtot   =       523.1307  EPtot      =       558.5617
 BOND   =       119.1113  ANGLE   =       275.2059  DIHED      =        80.5720
 1-4 NB =        20.3254  1-4 EEL =        41.5091  VDWAALS    =        56.7610
 EELEC  =       152.3729  EGB     =       125.5984  RESTRAINT  =         0.0000
 RM1ESCF=         9.4617
 CMAP   =         8.5384
 ------------------------------------------------------------------------------
