-------------------------------------------------------
          Amber 18 SANDER                              2018
          -------------------------------------------------------

  [-O]verwriting output

File Assignments:

 Here is the input file:

MD with GB7
 &cntrl
  nstlim = 10000, dt = 0.002,
  ntwr = 5000, ntwx = 500,
  ntc = 2, ntf = 2,
  ntt = 3, temp0 = 300, gamma_ln = 1.0,
  ntb = 0, igb = 7, cut = 9999.0,
  ifqnt = 1,
 /

 &qmmm
  qmmask = ':305', qmcharge = 0,
  qm_theory = 'RM1', qmcut = 20.0,
 /

--------------------------------------------------------------------------------
   1.  RESOURCE   USE:
--------------------------------------------------------------------------------

 NATOM  =    4680 NTYPES =      25 NBONH =    2315 MBONA  =    2418
 NTHETH =    5236 MTHETA =    3286 NPHIH =   10791 MPHIA  =   10501
 NHPARM =       0 NPARM  =       0 NNB   =   25773 NRES   =     305
 NBONA  =    2418 NTHETA =    3286 NPHIA =   10501 NUMBND =      86
 NUMANG =     199 NPTRA  =     218 NATYP =      46 NPHB   =       0
 IFBOX  =       0 NMXRS  =      34 IFCAP =       0 NEXTRA =       0
 NCOPY  =       0

 Implicit solvent radii are ArgH and AspGluO modified Bondi2 radii (mbondi3)
 Replacing prmtop screening parameters with GBn (igb=7) values

LOADING THE QUANTUM ATOMS AS GROUPS
     Mask :305; matches    34 atoms

--------------------------------------------------------------------------------
   2.  CONTROL  DATA  FOR  THE  RUN
--------------------------------------------------------------------------------

default_name

General flags:
     imin    =       0, nmropt  =       0

Nature and format of input:
     ntx     =       1, irest   =       0, ntrx    =       1

Nature and format of output:
     ntxo    =       2, ntpr    =      50, ntrx    =       1, ntwr    =    5000
     iwrap   =       0, ntwx    =     500, ntwv    =       0, ntwe    =       0
     ioutfm  =       1, ntwprt  =       0, idecomp =       0, rbornstat=      0

Potential function:
     ntf     =       2, ntb     =       0, igb     =       7, nsnb    =      25
     ipol    =       0, gbsa    =       0, iesp    =       0
     dielc   =   1.00000, cut     =9999.00000, intdiel =   1.00000
     saltcon =   0.00000, offset  =   0.09000, gbalpha=    1.09511
     gbbeta  =   1.90793, gbgamma =   2.50798, surften =   0.00500
     rdt     =   0.00000, rgbmax  =  25.00000  extdiel =  78.50000
     alpb  =        0

Frozen or restrained atoms:
     ibelly  =       0, ntr     =       0

Molecular dynamics:
     nstlim  =     10000, nscm    =      1000, nrespa  =         1
     t       =   0.00000, dt      =   0.00200, vlimit  =  20.00000

Langevin dynamics temperature regulation:
     ig      =   71277
     temp0   = 300.00000, tempi   =   0.00000, gamma_ln=   1.00000

SHAKE:
     ntc     =       2, jfastw  =       0
     tol     =   0.00001

QMMM options:
             ifqnt = True       nquant =       34
              qmgb =        2  qmcharge =        0   adjust_q =        2
              spin =        1     qmcut =  20.0000    qmshake =        1
          qmmm_int =        1
     lnk_atomic_no =        1   lnk_dis =   1.0900 lnk_method =        1
          qm_theory =     RM1 verbosity =        0
            qmqmdx = Analytical
      tight_p_conv = False (converge density to 0.05xSqrt[SCFCRT])
           scfconv = 0.100E-07  itrmax =     1000
      printcharges = False      printdipole = False      peptide_corr = False
    qmmmrij_incore = True
  qmqm_erep_incore = True
       pseudo_diag = True pseudo_diag_criteria =   0.0500
      diag_routine =        0
          qm_ewald =        0 qm_pme = False

--------------------------------------------------------------------------------
   3.  ATOMIC COORDINATES AND VELOCITIES
--------------------------------------------------------------------------------

default_name
 begin time read from input coords =     0.000 ps

 Number of triangulated 3-point waters found:        0
QMMM: ADJUSTING CHARGES
QMMM: ----------------------------------------------------------------------
QMMM: adjust_q = 2
QMMM: Uniformly adjusting the charge of MM atoms to conserve total charge.
QMMM:                             qm_charge =    0
QMMM: QM atom RESP charge sum (inc MM link) =    0.001
QMMM: Adjusting each MM atom resp charge by =    0.000
QMMM:          Sum of MM + QM region is now =   -2.999
QMMM: ----------------------------------------------------------------------

QMMM: Link Atom Information
QMMM: ------------------------------------------------------------------------
QMMM: nlink =     0
QMMM: ------------------------------------------------------------------------

  QMMM: QM Region Cartesian Coordinates (*=link atom)
  QMMM: QM_NO.   MM_NO.  ATOM         X         Y         Z
  QMMM:     1     4647      O        9.1153    1.3174   21.0035
  QMMM:     2     4648      C        8.5475    0.6662   21.8820
  QMMM:     3     4649      C        9.1806    0.2745   23.1999
  QMMM:     4     4650      C       10.7060    0.2094   23.0723
  QMMM:     5     4651      C       11.1055   -0.8569   22.0508
  QMMM:     6     4652      C       12.2604   -1.7367   22.5140
  QMMM:     7     4653      C       13.3700   -0.9256   23.1664
  QMMM:     8     4654      C       12.8565   -0.0241   24.2884
  QMMM:     9     4655      C       11.3393   -0.0768   24.4332
  QMMM:    10     4656      N        7.2106    0.2989   21.7162
  QMMM:    11     4657      C        6.4978    0.5858   20.5384
  QMMM:    12     4658      C        5.2694    1.2662   20.5879
  QMMM:    13     4659      C        4.6058    1.5339   19.4052
  QMMM:    14     4660      C        5.1788    1.1336   18.1893
  QMMM:    15     4661      N        6.3450    0.4610   18.1101
  QMMM:    16     4662      C        6.9616    0.1864   19.2783
  QMMM:    17     4663      H        8.7886   -0.6984   23.5755
  QMMM:    18     4664      H        8.8782    1.0243   23.9658
  QMMM:    19     4665      H       11.0792    1.2072   22.7222
  QMMM:    20     4666      H       10.2534   -1.5115   21.7713
  QMMM:    21     4667      H       11.3612   -0.3530   21.1006
  QMMM:    22     4668      H       12.6710   -2.2988   21.6491
  QMMM:    23     4669      H       11.9007   -2.5255   23.2078
  QMMM:    24     4670      H       14.1555   -1.6137   23.5521
  QMMM:    25     4671      H       13.8949   -0.3224   22.3978
  QMMM:    26     4672      H       13.3460   -0.3021   25.2441
  QMMM:    27     4673      H       13.1768    1.0244   24.1072
  QMMM:    28     4674      H       10.9951    0.6578   25.1893
  QMMM:    29     4675      H       11.0063   -1.0560   24.8320
  QMMM:    30     4676      H        6.6743   -0.1049   22.4864
  QMMM:    31     4677      H        4.8422    1.5789   21.5503
  QMMM:    32     4678      H        3.6572    2.0794   19.4087
  QMMM:    33     4679      H        4.7098    1.3622   17.2259
  QMMM:    34     4680      Cl       8.3924   -0.7358   19.1298

--------------------------------------------------------------------------------
  3.1 QM CALCULATION INFO
--------------------------------------------------------------------------------

QMMM: SINGLET STATE CALCULATION
QMMM: RHF CALCULATION, NO. OF DOUBLY OCCUPIED LEVELS = 46

--------------------------------------------------------------------------------
   4.  RESULTS
 NSTEP =        0   TIME(PS) =       0.000  TEMP(K) =     0.00  PRESS =     0.0
 Etot   =    -12004.8259  EKtot   =         0.0000  EPtot      =    -12004.8259
 BOND   =       143.2437  ANGLE   =       551.8937  DIHED      =      1194.6229
 1-4 NB =       950.0042  1-4 EEL =     12138.8284  VDWAALS    =     -2639.5185
 EELEC  =    -21553.3111  EGB     =     -2943.4323  RESTRAINT  =         0.0000
 RM1ESCF=       -63.0118
 CMAP   =       215.8550
 ------------------------------------------------------------------------------

      A V E R A G E S   O V E R   10000 S T E P S

 NSTEP =    10000   TIME(PS) =      20.000  TEMP(K) =   284.99  PRESS =     0.0
 Etot   =     -5234.5948  EKtot   =      3320.0970  EPtot      =     -8554.6918
 BOND   =       884.9698  ANGLE   =      2282.2398  DIHED      =      1659.4285
 1-4 NB =      1045.3135  1-4 EEL =     12027.7034  VDWAALS    =     -2374.0841
 EELEC  =    -20966.2090  EGB     =     -3303.8228  RESTRAINT  =         0.0000
 RM1ESCF=       -30.9148
 CMAP   =       220.6839
 ------------------------------------------------------------------------------

      R M S  F L U C T U A T I O N S

 NSTEP =    10000   TIME(PS) =      20.000  TEMP(K) =    44.88  PRESS =     0.0
 Etot   =      1079.5881  EKtot   =       522.8580  EPtot      =       558.7163
 BOND   =       120.3813  ANGLE   =       276.2060  DIHED      =        80.4251
 1-4 NB =        20.2809  1-4 EEL =        40.7257  VDWAALS    =        53.5624
 EELEC  =       134.7780  EGB     =       105.4847  RESTRAINT  =         0.0000
 RM1ESCF=         9.1547
 CMAP   =         8.5845
 ------------------------------------------------------------------------------
