-------------------------------------------------------
          Amber 18 SANDER                              2018
          -------------------------------------------------------

  [-O]verwriting output

File Assignments:

 Here is the input file:

MD with GB7
 &cntrl
  nstlim = 10000, dt = 0.002,
  ntwr = 5000, ntwx = 500,
  ntc = 2, ntf = 2,
  ntt = 3, temp0 = 300, gamma_ln = 1.0,
  ntb = 0, igb = 7, cut = 9999.0,
  ifqnt = 1,
 /

 &qmmm
  qmmask = ':305', qmcharge = 0,
  qm_theory = 'RM1', qmcut = 20.0,
 /

--------------------------------------------------------------------------------
   1.  RESOURCE   USE:
--------------------------------------------------------------------------------

 NATOM  =    4677 NTYPES =      24 NBONH =    2308 MBONA  =    2423
 NTHETH =    5215 MTHETA =    3294 NPHIH =   10758 MPHIA  =   10500
 NHPARM =       0 NPARM  =       0 NNB   =   25732 NRES   =     305
 NBONA  =    2423 NTHETA =    3294 NPHIA =   10500 NUMBND =      84
 NUMANG =     195 NPTRA  =     204 NATYP =      45 NPHB   =       0
 IFBOX  =       0 NMXRS  =      31 IFCAP =       0 NEXTRA =       0
 NCOPY  =       0

 Implicit solvent radii are ArgH and AspGluO modified Bondi2 radii (mbondi3)
 Replacing prmtop screening parameters with GBn (igb=7) values

LOADING THE QUANTUM ATOMS AS GROUPS
     Mask :305; matches    31 atoms

--------------------------------------------------------------------------------
   2.  CONTROL  DATA  FOR  THE  RUN
--------------------------------------------------------------------------------

default_name

General flags:
     imin    =       0, nmropt  =       0

Nature and format of input:
     ntx     =       1, irest   =       0, ntrx    =       1

Nature and format of output:
     ntxo    =       2, ntpr    =      50, ntrx    =       1, ntwr    =    5000
     iwrap   =       0, ntwx    =     500, ntwv    =       0, ntwe    =       0
     ioutfm  =       1, ntwprt  =       0, idecomp =       0, rbornstat=      0

Potential function:
     ntf     =       2, ntb     =       0, igb     =       7, nsnb    =      25
     ipol    =       0, gbsa    =       0, iesp    =       0
     dielc   =   1.00000, cut     =9999.00000, intdiel =   1.00000
     saltcon =   0.00000, offset  =   0.09000, gbalpha=    1.09511
     gbbeta  =   1.90793, gbgamma =   2.50798, surften =   0.00500
     rdt     =   0.00000, rgbmax  =  25.00000  extdiel =  78.50000
     alpb  =        0

Frozen or restrained atoms:
     ibelly  =       0, ntr     =       0

Molecular dynamics:
     nstlim  =     10000, nscm    =      1000, nrespa  =         1
     t       =   0.00000, dt      =   0.00200, vlimit  =  20.00000

Langevin dynamics temperature regulation:
     ig      =   71277
     temp0   = 300.00000, tempi   =   0.00000, gamma_ln=   1.00000

SHAKE:
     ntc     =       2, jfastw  =       0
     tol     =   0.00001

QMMM options:
             ifqnt = True       nquant =       31
              qmgb =        2  qmcharge =        0   adjust_q =        2
              spin =        1     qmcut =  20.0000    qmshake =        1
          qmmm_int =        1
     lnk_atomic_no =        1   lnk_dis =   1.0900 lnk_method =        1
          qm_theory =     RM1 verbosity =        0
            qmqmdx = Analytical
      tight_p_conv = False (converge density to 0.05xSqrt[SCFCRT])
           scfconv = 0.100E-07  itrmax =     1000
      printcharges = False      printdipole = False      peptide_corr = False
    qmmmrij_incore = True
  qmqm_erep_incore = True
       pseudo_diag = True pseudo_diag_criteria =   0.0500
      diag_routine =        0
          qm_ewald =        0 qm_pme = False

--------------------------------------------------------------------------------
   3.  ATOMIC COORDINATES AND VELOCITIES
--------------------------------------------------------------------------------

default_name
 begin time read from input coords =     0.000 ps

 Number of triangulated 3-point waters found:        0
QMMM: ADJUSTING CHARGES
QMMM: ----------------------------------------------------------------------
QMMM: adjust_q = 2
QMMM: Uniformly adjusting the charge of MM atoms to conserve total charge.
QMMM:                             qm_charge =    0
QMMM: QM atom RESP charge sum (inc MM link) =   -0.002
QMMM: Adjusting each MM atom resp charge by =   -0.000
QMMM:          Sum of MM + QM region is now =   -3.002
QMMM: ----------------------------------------------------------------------

QMMM: Link Atom Information
QMMM: ------------------------------------------------------------------------
QMMM: nlink =     0
QMMM: ------------------------------------------------------------------------

  QMMM: QM Region Cartesian Coordinates (*=link atom)
  QMMM: QM_NO.   MM_NO.  ATOM         X         Y         Z
  QMMM:     1     4647      O        8.8286    1.4047   20.8146
  QMMM:     2     4648      C        8.3214    0.4916   21.4783
  QMMM:     3     4649      N        9.0561   -0.3446   22.3087
  QMMM:     4     4650      C       10.4259   -0.0268   22.5391
  QMMM:     5     4651      C       10.7435    1.2093   23.1025
  QMMM:     6     4652      C       12.0731    1.5315   23.3353
  QMMM:     7     4653      C       13.0723    0.6265   23.0053
  QMMM:     8     4654      C       12.7452   -0.5973   22.4396
  QMMM:     9     4655      C       11.4242   -0.9404   22.2013
  QMMM:    10     4656      N        6.9193    0.2798   21.4615
  QMMM:    11     4657      C        6.1716    0.7339   20.3745
  QMMM:    12     4658      C        4.9905    1.5122   20.5558
  QMMM:    13     4659      C        4.1435    1.7360   19.4610
  QMMM:    14     4660      C        4.5824    1.3198   18.1512
  QMMM:    15     4661      N        5.7335    0.6967   17.9581
  QMMM:    16     4662      C        6.4820    0.3879   19.0670
  QMMM:    17     4663      H        8.6965   -1.2267   22.6748
  QMMM:    18     4664      H        9.9567    1.9316   23.3404
  QMMM:    19     4665      H       12.3295    2.5077   23.7654
  QMMM:    20     4666      H       14.1169    0.8972   23.1635
  QMMM:    21     4667      H       13.5378   -1.2916   22.1624
  QMMM:    22     4668      H       11.1774   -1.8991   21.7459
  QMMM:    23     4669      H        6.4059   -0.1136   22.2557
  QMMM:    24     4670      N        2.9101    2.3321   19.5967
  QMMM:    25     4671      H        3.9766    1.5399   17.2624
  QMMM:    26     4672      Cl       7.8983   -0.4926   18.7299
  QMMM:    27     4673      C        4.5895    2.0806   21.8119
  QMMM:    28     4674      H        5.2129    1.9936   22.7229
  QMMM:    29     4675      N        3.4361    2.7135   21.9390
  QMMM:    30     4676      C        2.6062    2.7825   20.8227
  QMMM:    31     4677      H        1.5992    3.2434   20.9650

--------------------------------------------------------------------------------
  3.1 QM CALCULATION INFO
--------------------------------------------------------------------------------

QMMM: SINGLET STATE CALCULATION
QMMM: RHF CALCULATION, NO. OF DOUBLY OCCUPIED LEVELS = 52

--------------------------------------------------------------------------------
   4.  RESULTS
 NSTEP =        0   TIME(PS) =       0.000  TEMP(K) =     0.00  PRESS =     0.0
 Etot   =    -11960.7500  EKtot   =         0.0000  EPtot      =    -11960.7500
 BOND   =       144.3005  ANGLE   =       554.4966  DIHED      =      1185.3202
 1-4 NB =       947.7021  1-4 EEL =     12115.4346  VDWAALS    =     -2642.4883
 EELEC  =    -21550.5520  EGB     =     -2962.4890  RESTRAINT  =         0.0000
 RM1ESCF=        34.1051
 CMAP   =       213.4202
 ------------------------------------------------------------------------------

      A V E R A G E S   O V E R   10000 S T E P S

 NSTEP =    10000   TIME(PS) =      20.000  TEMP(K) =   284.58  PRESS =     0.0
 Etot   =     -5176.9562  EKtot   =      3314.7246  EPtot      =     -8491.6808
 BOND   =       881.8626  ANGLE   =      2281.3697  DIHED      =      1661.5966
 1-4 NB =      1044.4520  1-4 EEL =     12010.8785  VDWAALS    =     -2386.5635
 EELEC  =    -20932.1701  EGB     =     -3335.7139  RESTRAINT  =         0.0000
 RM1ESCF=        61.9528
 CMAP   =       220.6545
 ------------------------------------------------------------------------------

      R M S  F L U C T U A T I O N S

 NSTEP =    10000   TIME(PS) =      20.000  TEMP(K) =    44.51  PRESS =     0.0
 Etot   =      1068.2773  EKtot   =       518.4370  EPtot      =       551.8122
 BOND   =       118.5867  ANGLE   =       273.8460  DIHED      =        81.0670
 1-4 NB =        20.2449  1-4 EEL =        41.7262  VDWAALS    =        49.6630
 EELEC  =       140.5953  EGB     =       112.6103  RESTRAINT  =         0.0000
 RM1ESCF=         6.9085
 CMAP   =         9.0675
 ------------------------------------------------------------------------------
