-------------------------------------------------------
          Amber 18 SANDER                              2018
          -------------------------------------------------------

  [-O]verwriting output

File Assignments:

 Here is the input file:

MD with GB7
 &cntrl
  nstlim = 10000, dt = 0.002,
  ntwr = 5000, ntwx = 500,
  ntc = 2, ntf = 2,
  ntt = 3, temp0 = 300, gamma_ln = 1.0,
  ntb = 0, igb = 7, cut = 9999.0,
  ifqnt = 1,
 /

 &qmmm
  qmmask = ':305', qmcharge = 0,
  qm_theory = 'RM1', qmcut = 20.0,
 /

--------------------------------------------------------------------------------
   1.  RESOURCE   USE:
--------------------------------------------------------------------------------

 NATOM  =    4688 NTYPES =      27 NBONH =    2320 MBONA  =    2421
 NTHETH =    5246 MTHETA =    3291 NPHIH =   10800 MPHIA  =   10509
 NHPARM =       0 NPARM  =       0 NNB   =   25814 NRES   =     305
 NBONA  =    2421 NTHETA =    3291 NPHIA =   10509 NUMBND =      89
 NUMANG =     204 NPTRA  =     220 NATYP =      48 NPHB   =       0
 IFBOX  =       0 NMXRS  =      42 IFCAP =       0 NEXTRA =       0
 NCOPY  =       0

 Implicit solvent radii are ArgH and AspGluO modified Bondi2 radii (mbondi3)
 Replacing prmtop screening parameters with GBn (igb=7) values

LOADING THE QUANTUM ATOMS AS GROUPS
     Mask :305; matches    42 atoms

--------------------------------------------------------------------------------
   2.  CONTROL  DATA  FOR  THE  RUN
--------------------------------------------------------------------------------

default_name

General flags:
     imin    =       0, nmropt  =       0

Nature and format of input:
     ntx     =       1, irest   =       0, ntrx    =       1

Nature and format of output:
     ntxo    =       2, ntpr    =      50, ntrx    =       1, ntwr    =    5000
     iwrap   =       0, ntwx    =     500, ntwv    =       0, ntwe    =       0
     ioutfm  =       1, ntwprt  =       0, idecomp =       0, rbornstat=      0

Potential function:
     ntf     =       2, ntb     =       0, igb     =       7, nsnb    =      25
     ipol    =       0, gbsa    =       0, iesp    =       0
     dielc   =   1.00000, cut     =9999.00000, intdiel =   1.00000
     saltcon =   0.00000, offset  =   0.09000, gbalpha=    1.09511
     gbbeta  =   1.90793, gbgamma =   2.50798, surften =   0.00500
     rdt     =   0.00000, rgbmax  =  25.00000  extdiel =  78.50000
     alpb  =        0

Frozen or restrained atoms:
     ibelly  =       0, ntr     =       0

Molecular dynamics:
     nstlim  =     10000, nscm    =      1000, nrespa  =         1
     t       =   0.00000, dt      =   0.00200, vlimit  =  20.00000

Langevin dynamics temperature regulation:
     ig      =   71277
     temp0   = 300.00000, tempi   =   0.00000, gamma_ln=   1.00000

SHAKE:
     ntc     =       2, jfastw  =       0
     tol     =   0.00001

QMMM options:
             ifqnt = True       nquant =       42
              qmgb =        2  qmcharge =        0   adjust_q =        2
              spin =        1     qmcut =  20.0000    qmshake =        1
          qmmm_int =        1
     lnk_atomic_no =        1   lnk_dis =   1.0900 lnk_method =        1
          qm_theory =     RM1 verbosity =        0
            qmqmdx = Analytical
      tight_p_conv = False (converge density to 0.05xSqrt[SCFCRT])
           scfconv = 0.100E-07  itrmax =     1000
      printcharges = False      printdipole = False      peptide_corr = False
    qmmmrij_incore = True
  qmqm_erep_incore = True
       pseudo_diag = True pseudo_diag_criteria =   0.0500
      diag_routine =        0
          qm_ewald =        0 qm_pme = False

--------------------------------------------------------------------------------
   3.  ATOMIC COORDINATES AND VELOCITIES
--------------------------------------------------------------------------------

default_name
 begin time read from input coords =     0.000 ps

 Number of triangulated 3-point waters found:        0
QMMM: ADJUSTING CHARGES
QMMM: ----------------------------------------------------------------------
QMMM: adjust_q = 2
QMMM: Uniformly adjusting the charge of MM atoms to conserve total charge.
QMMM:                             qm_charge =    0
QMMM: QM atom RESP charge sum (inc MM link) =   -0.000
QMMM: Adjusting each MM atom resp charge by =   -0.000
QMMM:          Sum of MM + QM region is now =   -3.000
QMMM: ----------------------------------------------------------------------

QMMM: Link Atom Information
QMMM: ------------------------------------------------------------------------
QMMM: nlink =     0
QMMM: ------------------------------------------------------------------------

  QMMM: QM Region Cartesian Coordinates (*=link atom)
  QMMM: QM_NO.   MM_NO.  ATOM         X         Y         Z
  QMMM:     1     4647      O        9.0632    1.3305   20.9725
  QMMM:     2     4648      C        8.5454    0.6274   21.8416
  QMMM:     3     4649      C        9.2087    0.2609   23.1545
  QMMM:     4     4650      C       10.7273    0.1136   23.0156
  QMMM:     5     4651      C       11.0713   -1.1006   22.1526
  QMMM:     6     4652      C       12.3262   -1.8314   22.6222
  QMMM:     7     4653      C       13.3871   -0.8688   23.1289
  QMMM:     8     4654      C       12.8735    0.0047   24.2711
  QMMM:     9     4655      C       11.3544   -0.0331   24.4020
  QMMM:    10     4656      N        7.2209    0.2066   21.7002
  QMMM:    11     4657      C        6.4021    0.6318   20.6329
  QMMM:    12     4658      C        5.2199    1.3330   20.9051
  QMMM:    13     4659      C        4.4033    1.7396   19.8459
  QMMM:    14     4660      C        4.8440    1.4575   18.5224
  QMMM:    15     4661      N        5.9662    0.7802   18.2410
  QMMM:    16     4662      C        6.7055    0.3635   19.2953
  QMMM:    17     4663      H        8.7733   -0.6631   23.6018
  QMMM:    18     4664      H        8.9574    1.0714   23.8793
  QMMM:    19     4665      H       11.1407    1.0361   22.5348
  QMMM:    20     4666      H       10.2328   -1.8289   22.1030
  QMMM:    21     4667      H       11.1852   -0.7658   21.1057
  QMMM:    22     4668      H       12.7392   -2.4373   21.7897
  QMMM:    23     4669      H       12.0765   -2.5762   23.4079
  QMMM:    24     4670      H       14.2838   -1.4378   23.4527
  QMMM:    25     4671      H       13.7535   -0.2407   22.2938
  QMMM:    26     4672      H       13.3472   -0.3035   25.2258
  QMMM:    27     4673      H       13.2077    1.0527   24.1142
  QMMM:    28     4674      H       11.0089    0.7700   25.0855
  QMMM:    29     4675      H       11.0150   -0.9726   24.8854
  QMMM:    30     4676      H        6.7504   -0.3262   22.4355
  QMMM:    31     4677      H        4.9620    1.5465   21.9517
  QMMM:    32     4678      N        3.1067    2.2802   20.0366
  QMMM:    33     4679      H        4.2770    1.8001   17.6418
  QMMM:    34     4680      Cl       8.0776   -0.5564   18.8893
  QMMM:    35     4681      C        2.7201    2.6151   21.4300
  QMMM:    36     4682      C        2.7501    3.3817   19.1111
  QMMM:    37     4683      H        1.6753    2.9760   21.4390
  QMMM:    38     4684      H        2.7550    1.7121   22.0631
  QMMM:    39     4685      H        3.3381    3.3972   21.9073
  QMMM:    40     4686      H        3.0830    3.2007   18.0749
  QMMM:    41     4687      H        1.6526    3.4899   19.0792
  QMMM:    42     4688      H        3.1701    4.3610   19.3951

--------------------------------------------------------------------------------
  3.1 QM CALCULATION INFO
--------------------------------------------------------------------------------

QMMM: SINGLET STATE CALCULATION
QMMM: RHF CALCULATION, NO. OF DOUBLY OCCUPIED LEVELS = 55

--------------------------------------------------------------------------------
   4.  RESULTS
 NSTEP =        0   TIME(PS) =       0.000  TEMP(K) =     0.00  PRESS =     0.0
 Etot   =    -12036.8789  EKtot   =         0.0000  EPtot      =    -12036.8789
 BOND   =       144.9444  ANGLE   =       554.1808  DIHED      =      1187.5080
 1-4 NB =       947.6247  1-4 EEL =     12130.2656  VDWAALS    =     -2643.7649
 EELEC  =    -21552.3405  EGB     =     -2953.4896  RESTRAINT  =         0.0000
 RM1ESCF=       -61.7992
 CMAP   =       209.9918
 ------------------------------------------------------------------------------

      A V E R A G E S   O V E R   10000 S T E P S

 NSTEP =    10000   TIME(PS) =      20.000  TEMP(K) =   284.59  PRESS =     0.0
 Etot   =     -5240.0657  EKtot   =      3320.8462  EPtot      =     -8560.9119
 BOND   =       882.6462  ANGLE   =      2278.9124  DIHED      =      1657.2082
 1-4 NB =      1046.3669  1-4 EEL =     12024.2205  VDWAALS    =     -2383.2769
 EELEC  =    -20909.2352  EGB     =     -3351.0961  RESTRAINT  =         0.0000
 RM1ESCF=       -27.5668
 CMAP   =       220.9089
 ------------------------------------------------------------------------------

      R M S  F L U C T U A T I O N S

 NSTEP =    10000   TIME(PS) =      20.000  TEMP(K) =    44.09  PRESS =     0.0
 Etot   =      1062.5460  EKtot   =       514.5319  EPtot      =       550.1073
 BOND   =       117.6052  ANGLE   =       269.9834  DIHED      =        79.1961
 1-4 NB =        20.2819  1-4 EEL =        42.1085  VDWAALS    =        51.8123
 EELEC  =       165.1012  EGB     =       130.8156  RESTRAINT  =         0.0000
 RM1ESCF=         7.8940
 CMAP   =         9.3344
 ------------------------------------------------------------------------------
