-------------------------------------------------------
          Amber 18 SANDER                              2018
          -------------------------------------------------------

  [-O]verwriting output

File Assignments:

 Here is the input file:

MD with GB7
 &cntrl
  nstlim = 10000, dt = 0.002,
  ntwr = 5000, ntwx = 500,
  ntc = 2, ntf = 2,
  ntt = 3, temp0 = 300, gamma_ln = 1.0,
  ntb = 0, igb = 7, cut = 9999.0,
  ifqnt = 1,
 /

 &qmmm
  qmmask = ':305', qmcharge = 0,
  qm_theory = 'RM1', qmcut = 20.0,
 /

--------------------------------------------------------------------------------
   1.  RESOURCE   USE:
--------------------------------------------------------------------------------

 NATOM  =    4684 NTYPES =      25 NBONH =    2315 MBONA  =    2423
 NTHETH =    5236 MTHETA =    3294 NPHIH =   10790 MPHIA  =   10516
 NHPARM =       0 NPARM  =       0 NNB   =   25797 NRES   =     305
 NBONA  =    2423 NTHETA =    3294 NPHIA =   10516 NUMBND =      86
 NUMANG =     200 NPTRA  =     218 NATYP =      46 NPHB   =       0
 IFBOX  =       0 NMXRS  =      38 IFCAP =       0 NEXTRA =       0
 NCOPY  =       0

 Implicit solvent radii are ArgH and AspGluO modified Bondi2 radii (mbondi3)
 Replacing prmtop screening parameters with GBn (igb=7) values

LOADING THE QUANTUM ATOMS AS GROUPS
     Mask :305; matches    38 atoms

--------------------------------------------------------------------------------
   2.  CONTROL  DATA  FOR  THE  RUN
--------------------------------------------------------------------------------

default_name

General flags:
     imin    =       0, nmropt  =       0

Nature and format of input:
     ntx     =       1, irest   =       0, ntrx    =       1

Nature and format of output:
     ntxo    =       2, ntpr    =      50, ntrx    =       1, ntwr    =    5000
     iwrap   =       0, ntwx    =     500, ntwv    =       0, ntwe    =       0
     ioutfm  =       1, ntwprt  =       0, idecomp =       0, rbornstat=      0

Potential function:
     ntf     =       2, ntb     =       0, igb     =       7, nsnb    =      25
     ipol    =       0, gbsa    =       0, iesp    =       0
     dielc   =   1.00000, cut     =9999.00000, intdiel =   1.00000
     saltcon =   0.00000, offset  =   0.09000, gbalpha=    1.09511
     gbbeta  =   1.90793, gbgamma =   2.50798, surften =   0.00500
     rdt     =   0.00000, rgbmax  =  25.00000  extdiel =  78.50000
     alpb  =        0

Frozen or restrained atoms:
     ibelly  =       0, ntr     =       0

Molecular dynamics:
     nstlim  =     10000, nscm    =      1000, nrespa  =         1
     t       =   0.00000, dt      =   0.00200, vlimit  =  20.00000

Langevin dynamics temperature regulation:
     ig      =   71277
     temp0   = 300.00000, tempi   =   0.00000, gamma_ln=   1.00000

SHAKE:
     ntc     =       2, jfastw  =       0
     tol     =   0.00001

QMMM options:
             ifqnt = True       nquant =       38
              qmgb =        2  qmcharge =        0   adjust_q =        2
              spin =        1     qmcut =  20.0000    qmshake =        1
          qmmm_int =        1
     lnk_atomic_no =        1   lnk_dis =   1.0900 lnk_method =        1
          qm_theory =     RM1 verbosity =        0
            qmqmdx = Analytical
      tight_p_conv = False (converge density to 0.05xSqrt[SCFCRT])
           scfconv = 0.100E-07  itrmax =     1000
      printcharges = False      printdipole = False      peptide_corr = False
    qmmmrij_incore = True
  qmqm_erep_incore = True
       pseudo_diag = True pseudo_diag_criteria =   0.0500
      diag_routine =        0
          qm_ewald =        0 qm_pme = False

--------------------------------------------------------------------------------
   3.  ATOMIC COORDINATES AND VELOCITIES
--------------------------------------------------------------------------------

default_name
 begin time read from input coords =     0.000 ps

 Number of triangulated 3-point waters found:        0
QMMM: ADJUSTING CHARGES
QMMM: ----------------------------------------------------------------------
QMMM: adjust_q = 2
QMMM: Uniformly adjusting the charge of MM atoms to conserve total charge.
QMMM:                             qm_charge =    0
QMMM: QM atom RESP charge sum (inc MM link) =    0.000
QMMM: Adjusting each MM atom resp charge by =    0.000
QMMM:          Sum of MM + QM region is now =   -3.000
QMMM: ----------------------------------------------------------------------

QMMM: Link Atom Information
QMMM: ------------------------------------------------------------------------
QMMM: nlink =     0
QMMM: ------------------------------------------------------------------------

  QMMM: QM Region Cartesian Coordinates (*=link atom)
  QMMM: QM_NO.   MM_NO.  ATOM         X         Y         Z
  QMMM:     1     4647      O        9.3269    1.3047   20.9862
  QMMM:     2     4648      C        8.7351    0.7279   21.8930
  QMMM:     3     4649      C        9.3479    0.2767   23.2054
  QMMM:     4     4650      C       10.8705    0.1526   23.0785
  QMMM:     5     4651      C       11.2352   -0.9447   22.0769
  QMMM:     6     4652      C       12.4200   -1.7924   22.5249
  QMMM:     7     4653      C       13.5104   -0.9524   23.1699
  QMMM:     8     4654      C       12.9926   -0.1142   24.3362
  QMMM:     9     4655      C       11.4731   -0.1473   24.4496
  QMMM:    10     4656      N        7.3468    0.5256   21.7980
  QMMM:    11     4657      C        6.5997    0.7913   20.6433
  QMMM:    12     4658      C        5.3728    1.5174   20.7549
  QMMM:    13     4659      C        4.5147    1.5932   19.6463
  QMMM:    14     4660      C        4.9849    1.0734   18.3872
  QMMM:    15     4661      N        6.1564    0.4786   18.2514
  QMMM:    16     4662      C        6.9227    0.3158   19.3834
  QMMM:    17     4663      H        8.9148   -0.6897   23.5558
  QMMM:    18     4664      H        9.0752    1.0232   23.9874
  QMMM:    19     4665      H       11.2880    1.1288   22.7180
  QMMM:    20     4666      H       10.3764   -1.6175   21.8617
  QMMM:    21     4667      H       11.4371   -0.4771   21.0959
  QMMM:    22     4668      H       12.8342   -2.3437   21.6556
  QMMM:    23     4669      H       12.0850   -2.5906   23.2215
  QMMM:    24     4670      H       14.3323   -1.6171   23.5093
  QMMM:    25     4671      H       13.9820   -0.3043   22.4036
  QMMM:    26     4672      H       13.4595   -0.4540   25.2834
  QMMM:    27     4673      H       13.3317    0.9365   24.2157
  QMMM:    28     4674      H       11.1254    0.5873   25.2066
  QMMM:    29     4675      H       11.1190   -1.1275   24.8299
  QMMM:    30     4676      H        6.8283    0.1291   22.5932
  QMMM:    31     4677      C        4.9316    2.1654   21.9610
  QMMM:    32     4678      N        3.2418    2.1254   19.7424
  QMMM:    33     4679      H        4.3809    1.1854   17.4789
  QMMM:    34     4680      Cl       8.3409   -0.5816   19.1327
  QMMM:    35     4681      C        2.9066    2.6540   20.9241
  QMMM:    36     4682      N        3.7393    2.7326   22.0405
  QMMM:    37     4683      H        1.8738    3.0637   21.0384
  QMMM:    38     4684      H        5.5651    2.2111   22.8683

--------------------------------------------------------------------------------
  3.1 QM CALCULATION INFO
--------------------------------------------------------------------------------

QMMM: SINGLET STATE CALCULATION
QMMM: RHF CALCULATION, NO. OF DOUBLY OCCUPIED LEVELS = 55

--------------------------------------------------------------------------------
   4.  RESULTS
 NSTEP =        0   TIME(PS) =       0.000  TEMP(K) =     0.00  PRESS =     0.0
 Etot   =    -11996.5025  EKtot   =         0.0000  EPtot      =    -11996.5025
 BOND   =       143.8548  ANGLE   =       551.8406  DIHED      =      1190.5574
 1-4 NB =       948.5166  1-4 EEL =     12135.9480  VDWAALS    =     -2643.3558
 EELEC  =    -21551.0100  EGB     =     -2964.0202  RESTRAINT  =         0.0000
 RM1ESCF=       -22.4919
 CMAP   =       213.6580
 ------------------------------------------------------------------------------

      A V E R A G E S   O V E R   10000 S T E P S

 NSTEP =    10000   TIME(PS) =      20.000  TEMP(K) =   284.71  PRESS =     0.0
 Etot   =     -5217.4314  EKtot   =      3320.2156  EPtot      =     -8537.6470
 BOND   =       882.5061  ANGLE   =      2275.1758  DIHED      =      1658.3349
 1-4 NB =      1045.7888  1-4 EEL =     12037.1850  VDWAALS    =     -2381.9252
 EELEC  =    -20968.6668  EGB     =     -3326.1991  RESTRAINT  =         0.0000
 RM1ESCF=        16.7362
 CMAP   =       223.4172
 ------------------------------------------------------------------------------

      R M S  F L U C T U A T I O N S

 NSTEP =    10000   TIME(PS) =      20.000  TEMP(K) =    44.45  PRESS =     0.0
 Etot   =      1066.1712  EKtot   =       518.3874  EPtot      =       549.7357
 BOND   =       118.9326  ANGLE   =       272.5773  DIHED      =        80.5042
 1-4 NB =        20.4879  1-4 EEL =        39.9044  VDWAALS    =        48.3368
 EELEC  =       114.1295  EGB     =        85.7169  RESTRAINT  =         0.0000
 RM1ESCF=        10.1230
 CMAP   =         8.2126
 ------------------------------------------------------------------------------
