-------------------------------------------------------
          Amber 18 SANDER                              2018
          -------------------------------------------------------

  [-O]verwriting output

File Assignments:

 Here is the input file:

MD with GB7
 &cntrl
  nstlim = 10000, dt = 0.002,
  ntwr = 5000, ntwx = 500,
  ntc = 2, ntf = 2,
  ntt = 3, temp0 = 300, gamma_ln = 1.0,
  ntb = 0, igb = 7, cut = 9999.0,
  ifqnt = 1,
 /

 &qmmm
  qmmask = ':305', qmcharge = 0,
  qm_theory = 'RM1', qmcut = 20.0,
 /

--------------------------------------------------------------------------------
   1.  RESOURCE   USE:
--------------------------------------------------------------------------------

 NATOM  =    4676 NTYPES =      25 NBONH =    2308 MBONA  =    2422
 NTHETH =    5215 MTHETA =    3293 NPHIH =   10759 MPHIA  =   10499
 NHPARM =       0 NPARM  =       0 NNB   =   25728 NRES   =     305
 NBONA  =    2422 NTHETA =    3293 NPHIA =   10499 NUMBND =      89
 NUMANG =     202 NPTRA  =     207 NATYP =      48 NPHB   =       0
 IFBOX  =       0 NMXRS  =      30 IFCAP =       0 NEXTRA =       0
 NCOPY  =       0

 Implicit solvent radii are ArgH and AspGluO modified Bondi2 radii (mbondi3)
 Replacing prmtop screening parameters with GBn (igb=7) values

LOADING THE QUANTUM ATOMS AS GROUPS
     Mask :305; matches    30 atoms

--------------------------------------------------------------------------------
   2.  CONTROL  DATA  FOR  THE  RUN
--------------------------------------------------------------------------------

default_name

General flags:
     imin    =       0, nmropt  =       0

Nature and format of input:
     ntx     =       1, irest   =       0, ntrx    =       1

Nature and format of output:
     ntxo    =       2, ntpr    =      50, ntrx    =       1, ntwr    =    5000
     iwrap   =       0, ntwx    =     500, ntwv    =       0, ntwe    =       0
     ioutfm  =       1, ntwprt  =       0, idecomp =       0, rbornstat=      0

Potential function:
     ntf     =       2, ntb     =       0, igb     =       7, nsnb    =      25
     ipol    =       0, gbsa    =       0, iesp    =       0
     dielc   =   1.00000, cut     =9999.00000, intdiel =   1.00000
     saltcon =   0.00000, offset  =   0.09000, gbalpha=    1.09511
     gbbeta  =   1.90793, gbgamma =   2.50798, surften =   0.00500
     rdt     =   0.00000, rgbmax  =  25.00000  extdiel =  78.50000
     alpb  =        0

Frozen or restrained atoms:
     ibelly  =       0, ntr     =       0

Molecular dynamics:
     nstlim  =     10000, nscm    =      1000, nrespa  =         1
     t       =   0.00000, dt      =   0.00200, vlimit  =  20.00000

Langevin dynamics temperature regulation:
     ig      =   71277
     temp0   = 300.00000, tempi   =   0.00000, gamma_ln=   1.00000

SHAKE:
     ntc     =       2, jfastw  =       0
     tol     =   0.00001

QMMM options:
             ifqnt = True       nquant =       30
              qmgb =        2  qmcharge =        0   adjust_q =        2
              spin =        1     qmcut =  20.0000    qmshake =        1
          qmmm_int =        1
     lnk_atomic_no =        1   lnk_dis =   1.0900 lnk_method =        1
          qm_theory =     RM1 verbosity =        0
            qmqmdx = Analytical
      tight_p_conv = False (converge density to 0.05xSqrt[SCFCRT])
           scfconv = 0.100E-07  itrmax =     1000
      printcharges = False      printdipole = False      peptide_corr = False
    qmmmrij_incore = True
  qmqm_erep_incore = True
       pseudo_diag = True pseudo_diag_criteria =   0.0500
      diag_routine =        0
          qm_ewald =        0 qm_pme = False

--------------------------------------------------------------------------------
   3.  ATOMIC COORDINATES AND VELOCITIES
--------------------------------------------------------------------------------

default_name
 begin time read from input coords =     0.000 ps

 Number of triangulated 3-point waters found:        0
QMMM: ADJUSTING CHARGES
QMMM: ----------------------------------------------------------------------
QMMM: adjust_q = 2
QMMM: Uniformly adjusting the charge of MM atoms to conserve total charge.
QMMM:                             qm_charge =    0
QMMM: QM atom RESP charge sum (inc MM link) =    0.001
QMMM: Adjusting each MM atom resp charge by =    0.000
QMMM:          Sum of MM + QM region is now =   -2.999
QMMM: ----------------------------------------------------------------------

QMMM: Link Atom Information
QMMM: ------------------------------------------------------------------------
QMMM: nlink =     0
QMMM: ------------------------------------------------------------------------

  QMMM: QM Region Cartesian Coordinates (*=link atom)
  QMMM: QM_NO.   MM_NO.  ATOM         X         Y         Z
  QMMM:     1     4647      O        8.5361    1.2742   20.7263
  QMMM:     2     4648      C        8.0640    0.3023   21.3333
  QMMM:     3     4649      N        8.8076   -0.4777   22.2045
  QMMM:     4     4650      C       10.1521   -0.0872   22.4879
  QMMM:     5     4651      C       10.3900    1.1609   23.0673
  QMMM:     6     4652      C       11.6958    1.5393   23.3545
  QMMM:     7     4653      C       12.7495    0.6828   23.0605
  QMMM:     8     4654      C       12.5030   -0.5562   22.4815
  QMMM:     9     4655      C       11.2052   -0.9580   22.1958
  QMMM:    10     4656      N        6.6882   -0.0491   21.1946
  QMMM:    11     4657      C        6.0069    0.4806   20.0902
  QMMM:    12     4658      C        4.8347    1.2520   20.1972
  QMMM:    13     4659      C        4.2645    1.8083   19.0172
  QMMM:    14     4660      C        4.8274    1.5415   17.7503
  QMMM:    15     4661      N        5.9066    0.7638   17.6425
  QMMM:    16     4662      C        6.4605    0.2719   18.7924
  QMMM:    17     4663      H        8.4992   -1.4042   22.5020
  QMMM:    18     4664      H        9.5629    1.8452   23.2899
  QMMM:    19     4665      H       11.8884    2.5231   23.8015
  QMMM:    20     4666      H       13.7768    0.9981   23.2604
  QMMM:    21     4667      H       13.3375   -1.2162   22.2212
  QMMM:    22     4668      H       11.0173   -1.9310   21.7295
  QMMM:    23     4669      H        6.1346   -0.3059   22.0173
  QMMM:    24     4670      N        3.1619    2.5471   19.4357
  QMMM:    25     4671      H        4.4375    1.9945   16.8308
  QMMM:    26     4672      Cl       7.8821   -0.6421   18.5551
  QMMM:    27     4673      N        4.0871    1.6304   21.3199
  QMMM:    28     4674      C        3.0979    2.4219   20.8302
  QMMM:    29     4675      H        2.3077    2.9062   21.4457
  QMMM:    30     4676      H        2.6372    3.1887   18.8446

--------------------------------------------------------------------------------
  3.1 QM CALCULATION INFO
--------------------------------------------------------------------------------

QMMM: SINGLET STATE CALCULATION
QMMM: RHF CALCULATION, NO. OF DOUBLY OCCUPIED LEVELS = 50

--------------------------------------------------------------------------------
   4.  RESULTS
 NSTEP =        0   TIME(PS) =       0.000  TEMP(K) =     0.00  PRESS =     0.0
 Etot   =    -11981.0677  EKtot   =         0.0000  EPtot      =    -11981.0677
 BOND   =       144.3898  ANGLE   =       553.6487  DIHED      =      1186.6545
 1-4 NB =       948.3565  1-4 EEL =     12123.3613  VDWAALS    =     -2643.0378
 EELEC  =    -21549.3078  EGB     =     -2966.8427  RESTRAINT  =         0.0000
 RM1ESCF=         9.6071
 CMAP   =       212.1028
 ------------------------------------------------------------------------------

      A V E R A G E S   O V E R   10000 S T E P S

 NSTEP =    10000   TIME(PS) =      20.000  TEMP(K) =   285.01  PRESS =     0.0
 Etot   =     -5164.7631  EKtot   =      3318.9158  EPtot      =     -8483.6790
 BOND   =       886.6771  ANGLE   =      2276.0745  DIHED      =      1659.3382
 1-4 NB =      1043.8231  1-4 EEL =     12010.0953  VDWAALS    =     -2360.7992
 EELEC  =    -20908.2463  EGB     =     -3353.6765  RESTRAINT  =         0.0000
 RM1ESCF=        41.9423
 CMAP   =       221.0924
 ------------------------------------------------------------------------------

      R M S  F L U C T U A T I O N S

 NSTEP =    10000   TIME(PS) =      20.000  TEMP(K) =    45.09  PRESS =     0.0
 Etot   =      1089.0958  EKtot   =       525.0205  EPtot      =       566.0972
 BOND   =       120.9391  ANGLE   =       274.8947  DIHED      =        78.8480
 1-4 NB =        20.2668  1-4 EEL =        39.8127  VDWAALS    =        60.8165
 EELEC  =       141.2041  EGB     =       104.4897  RESTRAINT  =         0.0000
 RM1ESCF=         9.5473
 CMAP   =         9.4551
 ------------------------------------------------------------------------------
