-------------------------------------------------------
          Amber 18 SANDER                              2018
          -------------------------------------------------------

  [-O]verwriting output

File Assignments:

 Here is the input file:

MD with GB7
 &cntrl
  nstlim = 10000, dt = 0.002,
  ntwr = 5000, ntwx = 500,
  ntc = 2, ntf = 2,
  ntt = 3, temp0 = 300, gamma_ln = 1.0,
  ntb = 0, igb = 7, cut = 9999.0,
  ifqnt = 1,
 /

 &qmmm
  qmmask = ':305', qmcharge = 0,
  qm_theory = 'RM1', qmcut = 20.0,
 /

--------------------------------------------------------------------------------
   1.  RESOURCE   USE:
--------------------------------------------------------------------------------

 NATOM  =    4685 NTYPES =      25 NBONH =    2316 MBONA  =    2423
 NTHETH =    5238 MTHETA =    3294 NPHIH =   10795 MPHIA  =   10516
 NHPARM =       0 NPARM  =       0 NNB   =   25803 NRES   =     305
 NBONA  =    2423 NTHETA =    3294 NPHIA =   10516 NUMBND =      86
 NUMANG =     199 NPTRA  =     218 NATYP =      46 NPHB   =       0
 IFBOX  =       0 NMXRS  =      39 IFCAP =       0 NEXTRA =       0
 NCOPY  =       0

 Implicit solvent radii are ArgH and AspGluO modified Bondi2 radii (mbondi3)
 Replacing prmtop screening parameters with GBn (igb=7) values

LOADING THE QUANTUM ATOMS AS GROUPS
     Mask :305; matches    39 atoms

--------------------------------------------------------------------------------
   2.  CONTROL  DATA  FOR  THE  RUN
--------------------------------------------------------------------------------

default_name

General flags:
     imin    =       0, nmropt  =       0

Nature and format of input:
     ntx     =       1, irest   =       0, ntrx    =       1

Nature and format of output:
     ntxo    =       2, ntpr    =      50, ntrx    =       1, ntwr    =    5000
     iwrap   =       0, ntwx    =     500, ntwv    =       0, ntwe    =       0
     ioutfm  =       1, ntwprt  =       0, idecomp =       0, rbornstat=      0

Potential function:
     ntf     =       2, ntb     =       0, igb     =       7, nsnb    =      25
     ipol    =       0, gbsa    =       0, iesp    =       0
     dielc   =   1.00000, cut     =9999.00000, intdiel =   1.00000
     saltcon =   0.00000, offset  =   0.09000, gbalpha=    1.09511
     gbbeta  =   1.90793, gbgamma =   2.50798, surften =   0.00500
     rdt     =   0.00000, rgbmax  =  25.00000  extdiel =  78.50000
     alpb  =        0

Frozen or restrained atoms:
     ibelly  =       0, ntr     =       0

Molecular dynamics:
     nstlim  =     10000, nscm    =      1000, nrespa  =         1
     t       =   0.00000, dt      =   0.00200, vlimit  =  20.00000

Langevin dynamics temperature regulation:
     ig      =   71277
     temp0   = 300.00000, tempi   =   0.00000, gamma_ln=   1.00000

SHAKE:
     ntc     =       2, jfastw  =       0
     tol     =   0.00001

QMMM options:
             ifqnt = True       nquant =       39
              qmgb =        2  qmcharge =        0   adjust_q =        2
              spin =        1     qmcut =  20.0000    qmshake =        1
          qmmm_int =        1
     lnk_atomic_no =        1   lnk_dis =   1.0900 lnk_method =        1
          qm_theory =     RM1 verbosity =        0
            qmqmdx = Analytical
      tight_p_conv = False (converge density to 0.05xSqrt[SCFCRT])
           scfconv = 0.100E-07  itrmax =     1000
      printcharges = False      printdipole = False      peptide_corr = False
    qmmmrij_incore = True
  qmqm_erep_incore = True
       pseudo_diag = True pseudo_diag_criteria =   0.0500
      diag_routine =        0
          qm_ewald =        0 qm_pme = False

--------------------------------------------------------------------------------
   3.  ATOMIC COORDINATES AND VELOCITIES
--------------------------------------------------------------------------------

default_name
 begin time read from input coords =     0.000 ps

 Number of triangulated 3-point waters found:        0
QMMM: ADJUSTING CHARGES
QMMM: ----------------------------------------------------------------------
QMMM: adjust_q = 2
QMMM: Uniformly adjusting the charge of MM atoms to conserve total charge.
QMMM:                             qm_charge =    0
QMMM: QM atom RESP charge sum (inc MM link) =    0.001
QMMM: Adjusting each MM atom resp charge by =    0.000
QMMM:          Sum of MM + QM region is now =   -2.999
QMMM: ----------------------------------------------------------------------

QMMM: Link Atom Information
QMMM: ------------------------------------------------------------------------
QMMM: nlink =     0
QMMM: ------------------------------------------------------------------------

  QMMM: QM Region Cartesian Coordinates (*=link atom)
  QMMM: QM_NO.   MM_NO.  ATOM         X         Y         Z
  QMMM:     1     4647      O        9.2667    1.3416   20.9905
  QMMM:     2     4648      C        8.6936    0.7442   21.9005
  QMMM:     3     4649      C        9.3217    0.3790   23.2297
  QMMM:     4     4650      C       10.8309    0.1627   23.0886
  QMMM:     5     4651      C       11.1112   -1.0184   22.1588
  QMMM:     6     4652      C       12.3572   -1.8044   22.5581
  QMMM:     7     4653      C       13.4446   -0.9011   23.1184
  QMMM:     8     4654      C       12.9655   -0.1085   24.3334
  QMMM:     9     4655      C       11.4460   -0.0970   24.4627
  QMMM:    10     4656      N        7.3306    0.4428   21.7840
  QMMM:    11     4657      C        6.5649    0.7366   20.6427
  QMMM:    12     4658      C        5.3486    1.4765   20.7889
  QMMM:    13     4659      C        4.5123    1.5971   19.6658
  QMMM:    14     4660      C        4.9797    1.1133   18.3932
  QMMM:    15     4661      N        6.1407    0.4997   18.2425
  QMMM:    16     4662      C        6.8915    0.2858   19.3792
  QMMM:    17     4663      H        8.8512   -0.5220   23.6868
  QMMM:    18     4664      H        9.1062    1.2121   23.9373
  QMMM:    19     4665      H       11.2971    1.0875   22.6607
  QMMM:    20     4666      H       10.2513   -1.7196   22.1050
  QMMM:    21     4667      H       11.2011   -0.6383   21.1247
  QMMM:    22     4668      H       12.7452   -2.3593   21.6792
  QMMM:    23     4669      H       12.1039   -2.5959   23.2951
  QMMM:    24     4670      H       14.3368   -1.5094   23.3820
  QMMM:    25     4671      H       13.8053   -0.2142   22.3272
  QMMM:    26     4672      H       13.4291   -0.5147   25.2553
  QMMM:    27     4673      H       13.3417    0.9338   24.2653
  QMMM:    28     4674      H       11.1266    0.6702   25.1971
  QMMM:    29     4675      H       11.0749   -1.0539   24.8826
  QMMM:    30     4676      H        6.8217    0.0069   22.5598
  QMMM:    31     4677      C        4.9266    2.0733   22.0081
  QMMM:    32     4678      N        3.2469    2.1454   19.7432
  QMMM:    33     4679      H        4.3716    1.2543   17.4886
  QMMM:    34     4680      Cl       8.2894   -0.6330   19.1027
  QMMM:    35     4681      C        2.8726    2.6545   20.9116
  QMMM:    36     4682      C        3.7020    2.6765   22.0696
  QMMM:    37     4683      H        1.8477    3.0708   20.9412
  QMMM:    38     4684      H        3.3356    3.1606   22.9896
  QMMM:    39     4685      H        5.5747    2.0428   22.8958

--------------------------------------------------------------------------------
  3.1 QM CALCULATION INFO
--------------------------------------------------------------------------------

QMMM: SINGLET STATE CALCULATION
QMMM: RHF CALCULATION, NO. OF DOUBLY OCCUPIED LEVELS = 55

--------------------------------------------------------------------------------
   4.  RESULTS
 NSTEP =        0   TIME(PS) =       0.000  TEMP(K) =     0.00  PRESS =     0.0
 Etot   =    -12016.4537  EKtot   =         0.0000  EPtot      =    -12016.4537
 BOND   =       144.7666  ANGLE   =       553.3578  DIHED      =      1187.4060
 1-4 NB =       947.2738  1-4 EEL =     12131.2160  VDWAALS    =     -2642.0085
 EELEC  =    -21548.8151  EGB     =     -2972.7685  RESTRAINT  =         0.0000
 RM1ESCF=       -27.1990
 CMAP   =       210.3173
 ------------------------------------------------------------------------------

      A V E R A G E S   O V E R   10000 S T E P S

 NSTEP =    10000   TIME(PS) =      20.000  TEMP(K) =   284.81  PRESS =     0.0
 Etot   =     -5211.0355  EKtot   =      3322.0231  EPtot      =     -8533.0586
 BOND   =       880.5019  ANGLE   =      2279.0552  DIHED      =      1660.0654
 1-4 NB =      1045.6054  1-4 EEL =     12021.5830  VDWAALS    =     -2380.7422
 EELEC  =    -20887.9285  EGB     =     -3383.7758  RESTRAINT  =         0.0000
 RM1ESCF=        11.5109
 CMAP   =       221.0662
 ------------------------------------------------------------------------------

      R M S  F L U C T U A T I O N S

 NSTEP =    10000   TIME(PS) =      20.000  TEMP(K) =    44.82  PRESS =     0.0
 Etot   =      1081.8965  EKtot   =       522.8144  EPtot      =       561.0738
 BOND   =       119.1869  ANGLE   =       276.1485  DIHED      =        79.3117
 1-4 NB =        20.3290  1-4 EEL =        41.3522  VDWAALS    =        51.9047
 EELEC  =       149.5989  EGB     =       116.2971  RESTRAINT  =         0.0000
 RM1ESCF=        10.1328
 CMAP   =         8.4462
 ------------------------------------------------------------------------------
