-------------------------------------------------------
          Amber 18 SANDER                              2018
          -------------------------------------------------------

  [-O]verwriting output

File Assignments:

 Here is the input file:

MD with GB7
 &cntrl
  nstlim = 10000, dt = 0.002,
  ntwr = 5000, ntwx = 500,
  ntc = 2, ntf = 2,
  ntt = 3, temp0 = 300, gamma_ln = 1.0,
  ntb = 0, igb = 7, cut = 9999.0,
  ifqnt = 1,
 /

 &qmmm
  qmmask = ':305', qmcharge = 0,
  qm_theory = 'RM1', qmcut = 20.0,
 /

--------------------------------------------------------------------------------
   1.  RESOURCE   USE:
--------------------------------------------------------------------------------

 NATOM  =    4677 NTYPES =      24 NBONH =    2309 MBONA  =    2422
 NTHETH =    5217 MTHETA =    3293 NPHIH =   10764 MPHIA  =   10499
 NHPARM =       0 NPARM  =       0 NNB   =   25735 NRES   =     305
 NBONA  =    2422 NTHETA =    3293 NPHIA =   10499 NUMBND =      90
 NUMANG =     204 NPTRA  =     209 NATYP =      47 NPHB   =       0
 IFBOX  =       0 NMXRS  =      31 IFCAP =       0 NEXTRA =       0
 NCOPY  =       0

 Implicit solvent radii are ArgH and AspGluO modified Bondi2 radii (mbondi3)
 Replacing prmtop screening parameters with GBn (igb=7) values

LOADING THE QUANTUM ATOMS AS GROUPS
     Mask :305; matches    31 atoms

--------------------------------------------------------------------------------
   2.  CONTROL  DATA  FOR  THE  RUN
--------------------------------------------------------------------------------

default_name

General flags:
     imin    =       0, nmropt  =       0

Nature and format of input:
     ntx     =       1, irest   =       0, ntrx    =       1

Nature and format of output:
     ntxo    =       2, ntpr    =      50, ntrx    =       1, ntwr    =    5000
     iwrap   =       0, ntwx    =     500, ntwv    =       0, ntwe    =       0
     ioutfm  =       1, ntwprt  =       0, idecomp =       0, rbornstat=      0

Potential function:
     ntf     =       2, ntb     =       0, igb     =       7, nsnb    =      25
     ipol    =       0, gbsa    =       0, iesp    =       0
     dielc   =   1.00000, cut     =9999.00000, intdiel =   1.00000
     saltcon =   0.00000, offset  =   0.09000, gbalpha=    1.09511
     gbbeta  =   1.90793, gbgamma =   2.50798, surften =   0.00500
     rdt     =   0.00000, rgbmax  =  25.00000  extdiel =  78.50000
     alpb  =        0

Frozen or restrained atoms:
     ibelly  =       0, ntr     =       0

Molecular dynamics:
     nstlim  =     10000, nscm    =      1000, nrespa  =         1
     t       =   0.00000, dt      =   0.00200, vlimit  =  20.00000

Langevin dynamics temperature regulation:
     ig      =   71277
     temp0   = 300.00000, tempi   =   0.00000, gamma_ln=   1.00000

SHAKE:
     ntc     =       2, jfastw  =       0
     tol     =   0.00001

QMMM options:
             ifqnt = True       nquant =       31
              qmgb =        2  qmcharge =        0   adjust_q =        2
              spin =        1     qmcut =  20.0000    qmshake =        1
          qmmm_int =        1
     lnk_atomic_no =        1   lnk_dis =   1.0900 lnk_method =        1
          qm_theory =     RM1 verbosity =        0
            qmqmdx = Analytical
      tight_p_conv = False (converge density to 0.05xSqrt[SCFCRT])
           scfconv = 0.100E-07  itrmax =     1000
      printcharges = False      printdipole = False      peptide_corr = False
    qmmmrij_incore = True
  qmqm_erep_incore = True
       pseudo_diag = True pseudo_diag_criteria =   0.0500
      diag_routine =        0
          qm_ewald =        0 qm_pme = False

--------------------------------------------------------------------------------
   3.  ATOMIC COORDINATES AND VELOCITIES
--------------------------------------------------------------------------------

default_name
 begin time read from input coords =     0.000 ps

 Number of triangulated 3-point waters found:        0
QMMM: ADJUSTING CHARGES
QMMM: ----------------------------------------------------------------------
QMMM: adjust_q = 2
QMMM: Uniformly adjusting the charge of MM atoms to conserve total charge.
QMMM:                             qm_charge =    0
QMMM: QM atom RESP charge sum (inc MM link) =    0.002
QMMM: Adjusting each MM atom resp charge by =    0.000
QMMM:          Sum of MM + QM region is now =   -2.998
QMMM: ----------------------------------------------------------------------

QMMM: Link Atom Information
QMMM: ------------------------------------------------------------------------
QMMM: nlink =     0
QMMM: ------------------------------------------------------------------------

  QMMM: QM Region Cartesian Coordinates (*=link atom)
  QMMM: QM_NO.   MM_NO.  ATOM         X         Y         Z
  QMMM:     1     4647      O        8.6063    1.1947   20.7685
  QMMM:     2     4648      C        8.1014    0.2289   21.3625
  QMMM:     3     4649      N        8.8340   -0.5596   22.2479
  QMMM:     4     4650      C       10.1692   -0.1571   22.5540
  QMMM:     5     4651      C       10.3704    1.0499   23.2266
  QMMM:     6     4652      C       11.6654    1.4594   23.5144
  QMMM:     7     4653      C       12.7471    0.6763   23.1299
  QMMM:     8     4654      C       12.5349   -0.5292   22.4710
  QMMM:     9     4655      C       11.2487   -0.9630   22.1837
  QMMM:    10     4656      N        6.7374   -0.0985   21.1986
  QMMM:    11     4657      C        6.0701    0.4504   20.0887
  QMMM:    12     4658      C        4.9187    1.2480   20.2145
  QMMM:    13     4659      C        4.3472    1.7881   19.0255
  QMMM:    14     4660      C        4.9067    1.5109   17.7591
  QMMM:    15     4661      N        5.9817    0.7291   17.6432
  QMMM:    16     4662      C        6.5237    0.2324   18.7957
  QMMM:    17     4663      H        8.5251   -1.4872   22.5337
  QMMM:    18     4664      H        9.5194    1.6752   23.5219
  QMMM:    19     4665      H       11.8263    2.4096   24.0358
  QMMM:    20     4666      H       13.7666    1.0221   23.3214
  QMMM:    21     4667      H       13.3898   -1.1361   22.1544
  QMMM:    22     4668      H       11.0896   -1.9112   21.6567
  QMMM:    23     4669      H        6.1720   -0.5245   21.9394
  QMMM:    24     4670      N        3.2491    2.5528   19.3931
  QMMM:    25     4671      H        4.5109    1.9577   16.8393
  QMMM:    26     4672      Cl       7.9427   -0.7016   18.5482
  QMMM:    27     4673      C        4.1404    1.7144   21.3099
  QMMM:    28     4674      H        4.3220    1.4992   22.3572
  QMMM:    29     4675      C        3.1364    2.5176   20.7849
  QMMM:    30     4676      H        2.3409    3.0587   21.3151
  QMMM:    31     4677      H        2.7408    3.1624   18.7587

--------------------------------------------------------------------------------
  3.1 QM CALCULATION INFO
--------------------------------------------------------------------------------

QMMM: SINGLET STATE CALCULATION
QMMM: RHF CALCULATION, NO. OF DOUBLY OCCUPIED LEVELS = 50

--------------------------------------------------------------------------------
   4.  RESULTS
 NSTEP =        0   TIME(PS) =       0.000  TEMP(K) =     0.00  PRESS =     0.0
 Etot   =    -11971.8112  EKtot   =         0.0000  EPtot      =    -11971.8112
 BOND   =       143.9219  ANGLE   =       553.9932  DIHED      =      1189.1868
 1-4 NB =       950.3479  1-4 EEL =     12122.7294  VDWAALS    =     -2643.2451
 EELEC  =    -21563.6441  EGB     =     -2942.0347  RESTRAINT  =         0.0000
 RM1ESCF=         1.0426
 CMAP   =       215.8908
 ------------------------------------------------------------------------------

      A V E R A G E S   O V E R   10000 S T E P S

 NSTEP =    10000   TIME(PS) =      20.000  TEMP(K) =   284.34  PRESS =     0.0
 Etot   =     -5198.9882  EKtot   =      3311.6781  EPtot      =     -8510.6662
 BOND   =       881.0036  ANGLE   =      2279.7618  DIHED      =      1659.4953
 1-4 NB =      1043.6981  1-4 EEL =     11993.3665  VDWAALS    =     -2377.7220
 EELEC  =    -20904.6985  EGB     =     -3344.2516  RESTRAINT  =         0.0000
 RM1ESCF=        32.2064
 CMAP   =       226.4742
 ------------------------------------------------------------------------------

      R M S  F L U C T U A T I O N S

 NSTEP =    10000   TIME(PS) =      20.000  TEMP(K) =    44.39  PRESS =     0.0
 Etot   =      1067.6134  EKtot   =       517.0181  EPtot      =       552.6208
 BOND   =       118.0641  ANGLE   =       273.4184  DIHED      =        79.8263
 1-4 NB =        20.0153  1-4 EEL =        44.4517  VDWAALS    =        52.4029
 EELEC  =       152.7686  EGB     =       116.9680  RESTRAINT  =         0.0000
 RM1ESCF=         9.9541
 CMAP   =         9.1809
 ------------------------------------------------------------------------------
