-------------------------------------------------------
          Amber 18 SANDER                              2018
          -------------------------------------------------------

  [-O]verwriting output

File Assignments:

 Here is the input file:

MD with GB7
 &cntrl
  nstlim = 10000, dt = 0.002,
  ntwr = 5000, ntwx = 500,
  ntc = 2, ntf = 2,
  ntt = 3, temp0 = 300, gamma_ln = 1.0,
  ntb = 0, igb = 7, cut = 9999.0,
  ifqnt = 1,
 /

 &qmmm
  qmmask = ':305', qmcharge = 0,
  qm_theory = 'RM1', qmcut = 20.0,
 /

--------------------------------------------------------------------------------
   1.  RESOURCE   USE:
--------------------------------------------------------------------------------

 NATOM  =    4677 NTYPES =      23 NBONH =    2308 MBONA  =    2423
 NTHETH =    5215 MTHETA =    3294 NPHIH =   10758 MPHIA  =   10500
 NHPARM =       0 NPARM  =       0 NNB   =   25731 NRES   =     305
 NBONA  =    2423 NTHETA =    3294 NPHIA =   10500 NUMBND =      83
 NUMANG =     193 NPTRA  =     204 NATYP =      44 NPHB   =       0
 IFBOX  =       0 NMXRS  =      31 IFCAP =       0 NEXTRA =       0
 NCOPY  =       0

 Implicit solvent radii are ArgH and AspGluO modified Bondi2 radii (mbondi3)
 Replacing prmtop screening parameters with GBn (igb=7) values

LOADING THE QUANTUM ATOMS AS GROUPS
     Mask :305; matches    31 atoms

--------------------------------------------------------------------------------
   2.  CONTROL  DATA  FOR  THE  RUN
--------------------------------------------------------------------------------

default_name

General flags:
     imin    =       0, nmropt  =       0

Nature and format of input:
     ntx     =       1, irest   =       0, ntrx    =       1

Nature and format of output:
     ntxo    =       2, ntpr    =      50, ntrx    =       1, ntwr    =    5000
     iwrap   =       0, ntwx    =     500, ntwv    =       0, ntwe    =       0
     ioutfm  =       1, ntwprt  =       0, idecomp =       0, rbornstat=      0

Potential function:
     ntf     =       2, ntb     =       0, igb     =       7, nsnb    =      25
     ipol    =       0, gbsa    =       0, iesp    =       0
     dielc   =   1.00000, cut     =9999.00000, intdiel =   1.00000
     saltcon =   0.00000, offset  =   0.09000, gbalpha=    1.09511
     gbbeta  =   1.90793, gbgamma =   2.50798, surften =   0.00500
     rdt     =   0.00000, rgbmax  =  25.00000  extdiel =  78.50000
     alpb  =        0

Frozen or restrained atoms:
     ibelly  =       0, ntr     =       0

Molecular dynamics:
     nstlim  =     10000, nscm    =      1000, nrespa  =         1
     t       =   0.00000, dt      =   0.00200, vlimit  =  20.00000

Langevin dynamics temperature regulation:
     ig      =   71277
     temp0   = 300.00000, tempi   =   0.00000, gamma_ln=   1.00000

SHAKE:
     ntc     =       2, jfastw  =       0
     tol     =   0.00001

QMMM options:
             ifqnt = True       nquant =       31
              qmgb =        2  qmcharge =        0   adjust_q =        2
              spin =        1     qmcut =  20.0000    qmshake =        1
          qmmm_int =        1
     lnk_atomic_no =        1   lnk_dis =   1.0900 lnk_method =        1
          qm_theory =     RM1 verbosity =        0
            qmqmdx = Analytical
      tight_p_conv = False (converge density to 0.05xSqrt[SCFCRT])
           scfconv = 0.100E-07  itrmax =     1000
      printcharges = False      printdipole = False      peptide_corr = False
    qmmmrij_incore = True
  qmqm_erep_incore = True
       pseudo_diag = True pseudo_diag_criteria =   0.0500
      diag_routine =        0
          qm_ewald =        0 qm_pme = False

--------------------------------------------------------------------------------
   3.  ATOMIC COORDINATES AND VELOCITIES
--------------------------------------------------------------------------------

default_name
 begin time read from input coords =     0.000 ps

 Number of triangulated 3-point waters found:        0
QMMM: ADJUSTING CHARGES
QMMM: ----------------------------------------------------------------------
QMMM: adjust_q = 2
QMMM: Uniformly adjusting the charge of MM atoms to conserve total charge.
QMMM:                             qm_charge =    0
QMMM: QM atom RESP charge sum (inc MM link) =   -0.001
QMMM: Adjusting each MM atom resp charge by =   -0.000
QMMM:          Sum of MM + QM region is now =   -3.001
QMMM: ----------------------------------------------------------------------

QMMM: Link Atom Information
QMMM: ------------------------------------------------------------------------
QMMM: nlink =     0
QMMM: ------------------------------------------------------------------------

  QMMM: QM Region Cartesian Coordinates (*=link atom)
  QMMM: QM_NO.   MM_NO.  ATOM         X         Y         Z
  QMMM:     1     4647      O        8.7174    1.3521   20.7726
  QMMM:     2     4648      C        8.2729    0.4026   21.4293
  QMMM:     3     4649      N        9.0545   -0.3856   22.2586
  QMMM:     4     4650      C       10.4111   -0.0093   22.4848
  QMMM:     5     4651      C       10.6928    1.2593   22.9952
  QMMM:     6     4652      C       12.0130    1.6128   23.2427
  QMMM:     7     4653      C       13.0358    0.7097   22.9822
  QMMM:     8     4654      C       12.7455   -0.5469   22.4650
  QMMM:     9     4655      C       11.4327   -0.9237   22.2167
  QMMM:    10     4656      N        6.8844    0.0768   21.3953
  QMMM:    11     4657      C        6.1263    0.5437   20.3177
  QMMM:    12     4658      C        4.9008    1.2548   20.5146
  QMMM:    13     4659      C        4.1228    1.5953   19.3920
  QMMM:    14     4660      C        4.6129    1.2726   18.0832
  QMMM:    15     4661      N        5.7657    0.6481   17.8916
  QMMM:    16     4662      C        6.4818    0.2850   19.0052
  QMMM:    17     4663      H        8.7332   -1.2917   22.6035
  QMMM:    18     4664      H        9.8890    1.9757   23.2000
  QMMM:    19     4665      H       12.2418    2.6103   23.6340
  QMMM:    20     4666      H       14.0748    1.0039   23.1538
  QMMM:    21     4667      H       13.5569   -1.2435   22.2299
  QMMM:    22     4668      H       11.2099   -1.9148   21.8032
  QMMM:    23     4669      H        6.3893   -0.1287   22.2704
  QMMM:    24     4670      H        4.0437    1.5562   17.1857
  QMMM:    25     4671      Cl       7.9166   -0.5627   18.6690
  QMMM:    26     4672      N        4.4979    1.5897   21.8017
  QMMM:    27     4673      C        3.3566    2.2433   21.9191
  QMMM:    28     4674      C        2.5296    2.5469   20.7662
  QMMM:    29     4675      H        3.0320    2.5277   22.9458
  QMMM:    30     4676      N        2.8923    2.2219   19.5390
  QMMM:    31     4677      H        1.5455    3.0485   20.8884

--------------------------------------------------------------------------------
  3.1 QM CALCULATION INFO
--------------------------------------------------------------------------------

QMMM: SINGLET STATE CALCULATION
QMMM: RHF CALCULATION, NO. OF DOUBLY OCCUPIED LEVELS = 52

--------------------------------------------------------------------------------
   4.  RESULTS
 NSTEP =        0   TIME(PS) =       0.000  TEMP(K) =     0.00  PRESS =     0.0
 Etot   =    -11968.8551  EKtot   =         0.0000  EPtot      =    -11968.8551
 BOND   =       145.0285  ANGLE   =       554.9637  DIHED      =      1185.6587
 1-4 NB =       946.4751  1-4 EEL =     12120.8648  VDWAALS    =     -2641.3304
 EELEC  =    -21562.5272  EGB     =     -2971.1248  RESTRAINT  =         0.0000
 RM1ESCF=        42.5837
 CMAP   =       210.5528
 ------------------------------------------------------------------------------

      A V E R A G E S   O V E R   10000 S T E P S

 NSTEP =    10000   TIME(PS) =      20.000  TEMP(K) =   285.43  PRESS =     0.0
 Etot   =     -5156.5640  EKtot   =      3324.6354  EPtot      =     -8481.1994
 BOND   =       884.9212  ANGLE   =      2282.2292  DIHED      =      1663.1574
 1-4 NB =      1044.5881  1-4 EEL =     12026.4970  VDWAALS    =     -2383.7999
 EELEC  =    -20946.7270  EGB     =     -3341.4904  RESTRAINT  =         0.0000
 RM1ESCF=        66.8668
 CMAP   =       222.5583
 ------------------------------------------------------------------------------

      R M S  F L U C T U A T I O N S

 NSTEP =    10000   TIME(PS) =      20.000  TEMP(K) =    44.76  PRESS =     0.0
 Etot   =      1075.6371  EKtot   =       521.3416  EPtot      =       556.3057
 BOND   =       119.3870  ANGLE   =       273.6265  DIHED      =        81.2586
 1-4 NB =        20.1521  1-4 EEL =        40.3223  VDWAALS    =        50.0535
 EELEC  =       138.5261  EGB     =       108.6834  RESTRAINT  =         0.0000
 RM1ESCF=         7.6877
 CMAP   =         8.8312
 ------------------------------------------------------------------------------
