-------------------------------------------------------
          Amber 18 SANDER                              2018
          -------------------------------------------------------

  [-O]verwriting output

File Assignments:

 Here is the input file:

MD with GB7
 &cntrl
  nstlim = 10000, dt = 0.002,
  ntwr = 5000, ntwx = 500,
  ntc = 2, ntf = 2,
  ntt = 3, temp0 = 300, gamma_ln = 1.0,
  ntb = 0, igb = 7, cut = 9999.0,
  ifqnt = 1,
 /

 &qmmm
  qmmask = ':305', qmcharge = 0,
  qm_theory = 'RM1', qmcut = 20.0,
 /

--------------------------------------------------------------------------------
   1.  RESOURCE   USE:
--------------------------------------------------------------------------------

 NATOM  =    4683 NTYPES =      25 NBONH =    2315 MBONA  =    2422
 NTHETH =    5236 MTHETA =    3293 NPHIH =   10791 MPHIA  =   10514
 NHPARM =       0 NPARM  =       0 NNB   =   25792 NRES   =     305
 NBONA  =    2422 NTHETA =    3293 NPHIA =   10514 NUMBND =      89
 NUMANG =     207 NPTRA  =     218 NATYP =      47 NPHB   =       0
 IFBOX  =       0 NMXRS  =      37 IFCAP =       0 NEXTRA =       0
 NCOPY  =       0

 Implicit solvent radii are ArgH and AspGluO modified Bondi2 radii (mbondi3)
 Replacing prmtop screening parameters with GBn (igb=7) values

LOADING THE QUANTUM ATOMS AS GROUPS
     Mask :305; matches    37 atoms

--------------------------------------------------------------------------------
   2.  CONTROL  DATA  FOR  THE  RUN
--------------------------------------------------------------------------------

default_name

General flags:
     imin    =       0, nmropt  =       0

Nature and format of input:
     ntx     =       1, irest   =       0, ntrx    =       1

Nature and format of output:
     ntxo    =       2, ntpr    =      50, ntrx    =       1, ntwr    =    5000
     iwrap   =       0, ntwx    =     500, ntwv    =       0, ntwe    =       0
     ioutfm  =       1, ntwprt  =       0, idecomp =       0, rbornstat=      0

Potential function:
     ntf     =       2, ntb     =       0, igb     =       7, nsnb    =      25
     ipol    =       0, gbsa    =       0, iesp    =       0
     dielc   =   1.00000, cut     =9999.00000, intdiel =   1.00000
     saltcon =   0.00000, offset  =   0.09000, gbalpha=    1.09511
     gbbeta  =   1.90793, gbgamma =   2.50798, surften =   0.00500
     rdt     =   0.00000, rgbmax  =  25.00000  extdiel =  78.50000
     alpb  =        0

Frozen or restrained atoms:
     ibelly  =       0, ntr     =       0

Molecular dynamics:
     nstlim  =     10000, nscm    =      1000, nrespa  =         1
     t       =   0.00000, dt      =   0.00200, vlimit  =  20.00000

Langevin dynamics temperature regulation:
     ig      =   71277
     temp0   = 300.00000, tempi   =   0.00000, gamma_ln=   1.00000

SHAKE:
     ntc     =       2, jfastw  =       0
     tol     =   0.00001

QMMM options:
             ifqnt = True       nquant =       37
              qmgb =        2  qmcharge =        0   adjust_q =        2
              spin =        1     qmcut =  20.0000    qmshake =        1
          qmmm_int =        1
     lnk_atomic_no =        1   lnk_dis =   1.0900 lnk_method =        1
          qm_theory =     RM1 verbosity =        0
            qmqmdx = Analytical
      tight_p_conv = False (converge density to 0.05xSqrt[SCFCRT])
           scfconv = 0.100E-07  itrmax =     1000
      printcharges = False      printdipole = False      peptide_corr = False
    qmmmrij_incore = True
  qmqm_erep_incore = True
       pseudo_diag = True pseudo_diag_criteria =   0.0500
      diag_routine =        0
          qm_ewald =        0 qm_pme = False

--------------------------------------------------------------------------------
   3.  ATOMIC COORDINATES AND VELOCITIES
--------------------------------------------------------------------------------

default_name
 begin time read from input coords =     0.000 ps

 Number of triangulated 3-point waters found:        0
QMMM: ADJUSTING CHARGES
QMMM: ----------------------------------------------------------------------
QMMM: adjust_q = 2
QMMM: Uniformly adjusting the charge of MM atoms to conserve total charge.
QMMM:                             qm_charge =    0
QMMM: QM atom RESP charge sum (inc MM link) =    0.003
QMMM: Adjusting each MM atom resp charge by =    0.000
QMMM:          Sum of MM + QM region is now =   -2.997
QMMM: ----------------------------------------------------------------------

QMMM: Link Atom Information
QMMM: ------------------------------------------------------------------------
QMMM: nlink =     0
QMMM: ------------------------------------------------------------------------

  QMMM: QM Region Cartesian Coordinates (*=link atom)
  QMMM: QM_NO.   MM_NO.  ATOM         X         Y         Z
  QMMM:     1     4647      O        9.1865    1.3564   20.9693
  QMMM:     2     4648      C        8.6327    0.7249   21.8724
  QMMM:     3     4649      C        9.2438    0.3455   23.2014
  QMMM:     4     4650      C       10.7595    0.1520   23.0643
  QMMM:     5     4651      C       11.0625   -1.0261   22.1368
  QMMM:     6     4652      C       12.3108   -1.8044   22.5466
  QMMM:     7     4653      C       13.3883   -0.8949   23.1140
  QMMM:     8     4654      C       12.8947   -0.1051   24.3237
  QMMM:     9     4655      C       11.3738   -0.1092   24.4372
  QMMM:    10     4656      N        7.2680    0.3832   21.7175
  QMMM:    11     4657      C        6.5636    0.6836   20.5462
  QMMM:    12     4658      N        5.3519    1.3887   20.6616
  QMMM:    13     4659      C        4.5197    1.5864   19.5227
  QMMM:    14     4660      C        5.0533    1.2020   18.2406
  QMMM:    15     4661      N        6.2103    0.5889   18.1092
  QMMM:    16     4662      C        6.9178    0.2954   19.2773
  QMMM:    17     4663      H        8.7727   -0.5721   23.6339
  QMMM:    18     4664      H        9.0047    1.1739   23.9108
  QMMM:    19     4665      H       11.2112    1.0858   22.6390
  QMMM:    20     4666      H       10.2077   -1.7323   22.0681
  QMMM:    21     4667      H       11.1688   -0.6367   21.1090
  QMMM:    22     4668      H       12.7072   -2.3523   21.6676
  QMMM:    23     4669      H       12.0607   -2.6033   23.2779
  QMMM:    24     4670      H       14.2820   -1.4978   23.3844
  QMMM:    25     4671      H       13.7502   -0.2080   22.3241
  QMMM:    26     4672      H       13.3497   -0.5122   25.2493
  QMMM:    27     4673      H       13.2764    0.9350   24.2668
  QMMM:    28     4674      H       11.0376    0.6393   25.1816
  QMMM:    29     4675      H       11.0206   -1.0803   24.8377
  QMMM:    30     4676      H        6.7345   -0.0723   22.4752
  QMMM:    31     4677      C        4.6537    1.8609   21.7765
  QMMM:    32     4678      N        3.3286    2.1340   19.9002
  QMMM:    33     4679      H        4.4808    1.4133   17.3339
  QMMM:    34     4680      Cl       8.2722   -0.6607   19.0513
  QMMM:    35     4681      C        3.4306    2.3097   21.2778
  QMMM:    36     4682      H        2.6172    2.7674   21.8421
  QMMM:    37     4683      H        5.0210    1.8089   22.8096

--------------------------------------------------------------------------------
  3.1 QM CALCULATION INFO
--------------------------------------------------------------------------------

QMMM: SINGLET STATE CALCULATION
QMMM: RHF CALCULATION, NO. OF DOUBLY OCCUPIED LEVELS = 53

--------------------------------------------------------------------------------
   4.  RESULTS
 NSTEP =        0   TIME(PS) =       0.000  TEMP(K) =     0.00  PRESS =     0.0
 Etot   =    -11991.7231  EKtot   =         0.0000  EPtot      =    -11991.7231
 BOND   =       144.8065  ANGLE   =       552.7169  DIHED      =      1190.7210
 1-4 NB =       947.9565  1-4 EEL =     12136.7360  VDWAALS    =     -2641.2302
 EELEC  =    -21554.0023  EGB     =     -2965.7938  RESTRAINT  =         0.0000
 RM1ESCF=       -16.7762
 CMAP   =       213.1425
 ------------------------------------------------------------------------------

      A V E R A G E S   O V E R   10000 S T E P S

 NSTEP =    10000   TIME(PS) =      20.000  TEMP(K) =   286.37  PRESS =     0.0
 Etot   =     -5169.6372  EKtot   =      3338.7370  EPtot      =     -8508.3742
 BOND   =       885.9456  ANGLE   =      2287.7540  DIHED      =      1662.5305
 1-4 NB =      1045.6429  1-4 EEL =     12006.0222  VDWAALS    =     -2370.4097
 EELEC  =    -20931.4257  EGB     =     -3332.6382  RESTRAINT  =         0.0000
 RM1ESCF=        16.9284
 CMAP   =       221.2757
 ------------------------------------------------------------------------------

      R M S  F L U C T U A T I O N S

 NSTEP =    10000   TIME(PS) =      20.000  TEMP(K) =    44.77  PRESS =     0.0
 Etot   =      1075.8785  EKtot   =       521.9312  EPtot      =       555.9006
 BOND   =       118.7930  ANGLE   =       275.8454  DIHED      =        79.9178
 1-4 NB =        20.1608  1-4 EEL =        44.2207  VDWAALS    =        53.6351
 EELEC  =       144.9575  EGB     =       107.0542  RESTRAINT  =         0.0000
 RM1ESCF=         9.4524
 CMAP   =         7.7789
 ------------------------------------------------------------------------------
