-------------------------------------------------------
          Amber 18 SANDER                              2018
          -------------------------------------------------------

  [-O]verwriting output

File Assignments:

 Here is the input file:

MD with GB7
 &cntrl
  nstlim = 10000, dt = 0.002,
  ntwr = 5000, ntwx = 500,
  ntc = 2, ntf = 2,
  ntt = 3, temp0 = 300, gamma_ln = 1.0,
  ntb = 0, igb = 7, cut = 9999.0,
  ifqnt = 1,
 /

 &qmmm
  qmmask = ':305', qmcharge = 0,
  qm_theory = 'RM1', qmcut = 20.0,
 /

--------------------------------------------------------------------------------
   1.  RESOURCE   USE:
--------------------------------------------------------------------------------

 NATOM  =    4675 NTYPES =      24 NBONH =    2309 MBONA  =    2419
 NTHETH =    5216 MTHETA =    3288 NPHIH =   10761 MPHIA  =   10488
 NHPARM =       0 NPARM  =       0 NNB   =   25719 NRES   =     305
 NBONA  =    2419 NTHETA =    3288 NPHIA =   10488 NUMBND =      85
 NUMANG =     196 NPTRA  =     205 NATYP =      45 NPHB   =       0
 IFBOX  =       0 NMXRS  =      29 IFCAP =       0 NEXTRA =       0
 NCOPY  =       0

 Implicit solvent radii are ArgH and AspGluO modified Bondi2 radii (mbondi3)
 Replacing prmtop screening parameters with GBn (igb=7) values

LOADING THE QUANTUM ATOMS AS GROUPS
     Mask :305; matches    29 atoms

--------------------------------------------------------------------------------
   2.  CONTROL  DATA  FOR  THE  RUN
--------------------------------------------------------------------------------

default_name

General flags:
     imin    =       0, nmropt  =       0

Nature and format of input:
     ntx     =       1, irest   =       0, ntrx    =       1

Nature and format of output:
     ntxo    =       2, ntpr    =      50, ntrx    =       1, ntwr    =    5000
     iwrap   =       0, ntwx    =     500, ntwv    =       0, ntwe    =       0
     ioutfm  =       1, ntwprt  =       0, idecomp =       0, rbornstat=      0

Potential function:
     ntf     =       2, ntb     =       0, igb     =       7, nsnb    =      25
     ipol    =       0, gbsa    =       0, iesp    =       0
     dielc   =   1.00000, cut     =9999.00000, intdiel =   1.00000
     saltcon =   0.00000, offset  =   0.09000, gbalpha=    1.09511
     gbbeta  =   1.90793, gbgamma =   2.50798, surften =   0.00500
     rdt     =   0.00000, rgbmax  =  25.00000  extdiel =  78.50000
     alpb  =        0

Frozen or restrained atoms:
     ibelly  =       0, ntr     =       0

Molecular dynamics:
     nstlim  =     10000, nscm    =      1000, nrespa  =         1
     t       =   0.00000, dt      =   0.00200, vlimit  =  20.00000

Langevin dynamics temperature regulation:
     ig      =   71277
     temp0   = 300.00000, tempi   =   0.00000, gamma_ln=   1.00000

SHAKE:
     ntc     =       2, jfastw  =       0
     tol     =   0.00001

QMMM options:
             ifqnt = True       nquant =       29
              qmgb =        2  qmcharge =        0   adjust_q =        2
              spin =        1     qmcut =  20.0000    qmshake =        1
          qmmm_int =        1
     lnk_atomic_no =        1   lnk_dis =   1.0900 lnk_method =        1
          qm_theory =     RM1 verbosity =        0
            qmqmdx = Analytical
      tight_p_conv = False (converge density to 0.05xSqrt[SCFCRT])
           scfconv = 0.100E-07  itrmax =     1000
      printcharges = False      printdipole = False      peptide_corr = False
    qmmmrij_incore = True
  qmqm_erep_incore = True
       pseudo_diag = True pseudo_diag_criteria =   0.0500
      diag_routine =        0
          qm_ewald =        0 qm_pme = False

--------------------------------------------------------------------------------
   3.  ATOMIC COORDINATES AND VELOCITIES
--------------------------------------------------------------------------------

default_name
 begin time read from input coords =     0.000 ps

 Number of triangulated 3-point waters found:        0
QMMM: ADJUSTING CHARGES
QMMM: ----------------------------------------------------------------------
QMMM: adjust_q = 2
QMMM: Uniformly adjusting the charge of MM atoms to conserve total charge.
QMMM:                             qm_charge =    0
QMMM: QM atom RESP charge sum (inc MM link) =    0.002
QMMM: Adjusting each MM atom resp charge by =    0.000
QMMM:          Sum of MM + QM region is now =   -2.998
QMMM: ----------------------------------------------------------------------

QMMM: Link Atom Information
QMMM: ------------------------------------------------------------------------
QMMM: nlink =     0
QMMM: ------------------------------------------------------------------------

  QMMM: QM Region Cartesian Coordinates (*=link atom)
  QMMM: QM_NO.   MM_NO.  ATOM         X         Y         Z
  QMMM:     1     4647      O        8.5903    1.3100   20.7777
  QMMM:     2     4648      C        8.0828    0.3611   21.3932
  QMMM:     3     4649      N        8.8168   -0.4417   22.2590
  QMMM:     4     4650      C       10.1631   -0.0717   22.5478
  QMMM:     5     4651      C       10.4055    1.1509   23.1768
  QMMM:     6     4652      C       11.7141    1.5208   23.4599
  QMMM:     7     4653      C       12.7659    0.6816   23.1161
  QMMM:     8     4654      C       12.5142   -0.5351   22.4938
  QMMM:     9     4655      C       11.2133   -0.9302   22.2137
  QMMM:    10     4656      N        6.7005    0.0785   21.2851
  QMMM:    11     4657      C        6.0298    0.5926   20.1608
  QMMM:    12     4658      C        4.9000    1.3983   20.2814
  QMMM:    13     4659      C        4.2844    1.8715   19.1097
  QMMM:    14     4660      C        4.8343    1.4852   17.8509
  QMMM:    15     4661      N        5.9115    0.6993   17.7327
  QMMM:    16     4662      C        6.4784    0.2667   18.8747
  QMMM:    17     4663      H        8.4902   -1.3605   22.5464
  QMMM:    18     4664      H        9.5792    1.8206   23.4413
  QMMM:    19     4665      H       11.9099    2.4826   23.9444
  QMMM:    20     4666      H       13.7975    0.9893   23.3137
  QMMM:    21     4667      H       13.3454   -1.1832   22.1990
  QMMM:    22     4668      H       11.0202   -1.8898   21.7195
  QMMM:    23     4669      H        6.1409   -0.2310   22.0893
  QMMM:    24     4670      H        4.5245    1.6938   21.2709
  QMMM:    25     4671      N        3.1316    2.6154   19.1660
  QMMM:    26     4672      H        4.4286    1.8698   16.9052
  QMMM:    27     4673      Cl       7.8780   -0.7043   18.6809
  QMMM:    28     4674      H        2.9019    3.0880   20.0289
  QMMM:    29     4675      H        2.8299    3.0910   18.3284

--------------------------------------------------------------------------------
  3.1 QM CALCULATION INFO
--------------------------------------------------------------------------------

QMMM: SINGLET STATE CALCULATION
QMMM: RHF CALCULATION, NO. OF DOUBLY OCCUPIED LEVELS = 46

--------------------------------------------------------------------------------
   4.  RESULTS
 NSTEP =        0   TIME(PS) =       0.000  TEMP(K) =     0.00  PRESS =     0.0
 Etot   =    -11990.0845  EKtot   =         0.0000  EPtot      =    -11990.0845
 BOND   =       144.0382  ANGLE   =       553.6181  DIHED      =      1186.6184
 1-4 NB =       949.4818  1-4 EEL =     12117.2754  VDWAALS    =     -2641.9991
 EELEC  =    -21536.6424  EGB     =     -2953.4512  RESTRAINT  =         0.0000
 RM1ESCF=       -24.2463
 CMAP   =       215.2226
 ------------------------------------------------------------------------------

      A V E R A G E S   O V E R   10000 S T E P S

 NSTEP =    10000   TIME(PS) =      20.000  TEMP(K) =   283.98  PRESS =     0.0
 Etot   =     -5229.6463  EKtot   =      3305.8147  EPtot      =     -8535.4610
 BOND   =       880.2366  ANGLE   =      2278.5245  DIHED      =      1659.0597
 1-4 NB =      1042.6373  1-4 EEL =     11996.6831  VDWAALS    =     -2379.1417
 EELEC  =    -20883.3328  EGB     =     -3358.2891  RESTRAINT  =         0.0000
 RM1ESCF=         6.0178
 CMAP   =       222.1436
 ------------------------------------------------------------------------------

      R M S  F L U C T U A T I O N S

 NSTEP =    10000   TIME(PS) =      20.000  TEMP(K) =    44.63  PRESS =     0.0
 Etot   =      1070.8827  EKtot   =       519.5697  EPtot      =       553.2697
 BOND   =       119.7295  ANGLE   =       274.8683  DIHED      =        80.4614
 1-4 NB =        19.7578  1-4 EEL =        40.7147  VDWAALS    =        50.2364
 EELEC  =       137.2372  EGB     =       102.3691  RESTRAINT  =         0.0000
 RM1ESCF=         9.1881
 CMAP   =         8.3080
 ------------------------------------------------------------------------------
