-------------------------------------------------------
          Amber 18 SANDER                              2018
          -------------------------------------------------------

  [-O]verwriting output

File Assignments:

 Here is the input file:

MD with GB7
 &cntrl
  nstlim = 10000, dt = 0.002,
  ntwr = 5000, ntwx = 500,
  ntc = 2, ntf = 2,
  ntt = 3, temp0 = 300, gamma_ln = 1.0,
  ntb = 0, igb = 7, cut = 9999.0,
  ifqnt = 1,
 /

 &qmmm
  qmmask = ':305', qmcharge = 0,
  qm_theory = 'RM1', qmcut = 20.0,
 /

--------------------------------------------------------------------------------
   1.  RESOURCE   USE:
--------------------------------------------------------------------------------

 NATOM  =    4678 NTYPES =      23 NBONH =    2309 MBONA  =    2423
 NTHETH =    5217 MTHETA =    3294 NPHIH =   10763 MPHIA  =   10500
 NHPARM =       0 NPARM  =       0 NNB   =   25739 NRES   =     305
 NBONA  =    2423 NTHETA =    3294 NPHIA =   10500 NUMBND =      83
 NUMANG =     193 NPTRA  =     204 NATYP =      44 NPHB   =       0
 IFBOX  =       0 NMXRS  =      32 IFCAP =       0 NEXTRA =       0
 NCOPY  =       0

 Implicit solvent radii are ArgH and AspGluO modified Bondi2 radii (mbondi3)
 Replacing prmtop screening parameters with GBn (igb=7) values

LOADING THE QUANTUM ATOMS AS GROUPS
     Mask :305; matches    32 atoms

--------------------------------------------------------------------------------
   2.  CONTROL  DATA  FOR  THE  RUN
--------------------------------------------------------------------------------

default_name

General flags:
     imin    =       0, nmropt  =       0

Nature and format of input:
     ntx     =       1, irest   =       0, ntrx    =       1

Nature and format of output:
     ntxo    =       2, ntpr    =      50, ntrx    =       1, ntwr    =    5000
     iwrap   =       0, ntwx    =     500, ntwv    =       0, ntwe    =       0
     ioutfm  =       1, ntwprt  =       0, idecomp =       0, rbornstat=      0

Potential function:
     ntf     =       2, ntb     =       0, igb     =       7, nsnb    =      25
     ipol    =       0, gbsa    =       0, iesp    =       0
     dielc   =   1.00000, cut     =9999.00000, intdiel =   1.00000
     saltcon =   0.00000, offset  =   0.09000, gbalpha=    1.09511
     gbbeta  =   1.90793, gbgamma =   2.50798, surften =   0.00500
     rdt     =   0.00000, rgbmax  =  25.00000  extdiel =  78.50000
     alpb  =        0

Frozen or restrained atoms:
     ibelly  =       0, ntr     =       0

Molecular dynamics:
     nstlim  =     10000, nscm    =      1000, nrespa  =         1
     t       =   0.00000, dt      =   0.00200, vlimit  =  20.00000

Langevin dynamics temperature regulation:
     ig      =   71277
     temp0   = 300.00000, tempi   =   0.00000, gamma_ln=   1.00000

SHAKE:
     ntc     =       2, jfastw  =       0
     tol     =   0.00001

QMMM options:
             ifqnt = True       nquant =       32
              qmgb =        2  qmcharge =        0   adjust_q =        2
              spin =        1     qmcut =  20.0000    qmshake =        1
          qmmm_int =        1
     lnk_atomic_no =        1   lnk_dis =   1.0900 lnk_method =        1
          qm_theory =     RM1 verbosity =        0
            qmqmdx = Analytical
      tight_p_conv = False (converge density to 0.05xSqrt[SCFCRT])
           scfconv = 0.100E-07  itrmax =     1000
      printcharges = False      printdipole = False      peptide_corr = False
    qmmmrij_incore = True
  qmqm_erep_incore = True
       pseudo_diag = True pseudo_diag_criteria =   0.0500
      diag_routine =        0
          qm_ewald =        0 qm_pme = False

--------------------------------------------------------------------------------
   3.  ATOMIC COORDINATES AND VELOCITIES
--------------------------------------------------------------------------------

default_name
 begin time read from input coords =     0.000 ps

 Number of triangulated 3-point waters found:        0
QMMM: ADJUSTING CHARGES
QMMM: ----------------------------------------------------------------------
QMMM: adjust_q = 2
QMMM: Uniformly adjusting the charge of MM atoms to conserve total charge.
QMMM:                             qm_charge =    0
QMMM: QM atom RESP charge sum (inc MM link) =    0.001
QMMM: Adjusting each MM atom resp charge by =    0.000
QMMM:          Sum of MM + QM region is now =   -2.999
QMMM: ----------------------------------------------------------------------

QMMM: Link Atom Information
QMMM: ------------------------------------------------------------------------
QMMM: nlink =     0
QMMM: ------------------------------------------------------------------------

  QMMM: QM Region Cartesian Coordinates (*=link atom)
  QMMM: QM_NO.   MM_NO.  ATOM         X         Y         Z
  QMMM:     1     4647      O        8.7334    1.3186   20.8057
  QMMM:     2     4648      C        8.2979    0.3292   21.4143
  QMMM:     3     4649      N        9.0951   -0.4774   22.2196
  QMMM:     4     4650      C       10.4365   -0.0703   22.4787
  QMMM:     5     4651      C       10.6687    1.1825   23.0497
  QMMM:     6     4652      C       11.9743    1.5720   23.3192
  QMMM:     7     4653      C       13.0305    0.7208   23.0230
  QMMM:     8     4654      C       12.7883   -0.5250   22.4569
  QMMM:     9     4655      C       11.4919   -0.9381   22.1848
  QMMM:    10     4656      N        6.9218    0.0161   21.3693
  QMMM:    11     4657      C        6.1537    0.5181   20.3072
  QMMM:    12     4658      C        4.9665    1.2714   20.5442
  QMMM:    13     4659      C        4.1714    1.6121   19.4355
  QMMM:    14     4660      C        4.6409    1.2926   18.1121
  QMMM:    15     4661      N        5.7826    0.6613   17.8897
  QMMM:    16     4662      C        6.5015    0.2713   18.9949
  QMMM:    17     4663      H        8.8212   -1.4284   22.4675
  QMMM:    18     4664      H        9.8386    1.8592   23.2824
  QMMM:    19     4665      H       12.1640    2.5585   23.7565
  QMMM:    20     4666      H       14.0575    1.0461   23.2056
  QMMM:    21     4667      H       13.6248   -1.1831   22.2021
  QMMM:    22     4668      H       11.3076   -1.9186   21.7316
  QMMM:    23     4669      H        6.4462   -0.5400   22.0827
  QMMM:    24     4670      N        2.9442    2.2310   19.5704
  QMMM:    25     4671      H        4.0677    1.5994   17.2252
  QMMM:    26     4672      Cl       7.9253   -0.5926   18.6379
  QMMM:    27     4673      C        4.5460    1.6941   21.8336
  QMMM:    28     4674      H        5.1733    1.4862   22.7109
  QMMM:    29     4675      C        3.3622    2.3632   21.9603
  QMMM:    30     4676      H        2.9987    2.7239   22.9355
  QMMM:    31     4677      C        2.5699    2.5835   20.7940
  QMMM:    32     4678      H        1.5760    3.0698   20.8668

--------------------------------------------------------------------------------
  3.1 QM CALCULATION INFO
--------------------------------------------------------------------------------

QMMM: SINGLET STATE CALCULATION
QMMM: RHF CALCULATION, NO. OF DOUBLY OCCUPIED LEVELS = 52

--------------------------------------------------------------------------------
   4.  RESULTS
 NSTEP =        0   TIME(PS) =       0.000  TEMP(K) =     0.00  PRESS =     0.0
 Etot   =    -11962.8823  EKtot   =         0.0000  EPtot      =    -11962.8823
 BOND   =       144.5223  ANGLE   =       553.8363  DIHED      =      1187.9080
 1-4 NB =       948.7074  1-4 EEL =     12120.0192  VDWAALS    =     -2641.2914
 EELEC  =    -21559.9508  EGB     =     -2961.5702  RESTRAINT  =         0.0000
 RM1ESCF=        30.8138
 CMAP   =       214.1231
 ------------------------------------------------------------------------------

      A V E R A G E S   O V E R   10000 S T E P S

 NSTEP =    10000   TIME(PS) =      20.000  TEMP(K) =   285.35  PRESS =     0.0
 Etot   =     -5158.1280  EKtot   =      3324.3022  EPtot      =     -8482.4302
 BOND   =       884.9306  ANGLE   =      2281.6240  DIHED      =      1662.2737
 1-4 NB =      1044.1871  1-4 EEL =     12021.0158  VDWAALS    =     -2361.7477
 EELEC  =    -20924.5989  EGB     =     -3370.9198  RESTRAINT  =         0.0000
 RM1ESCF=        59.2011
 CMAP   =       221.6040
 ------------------------------------------------------------------------------

      R M S  F L U C T U A T I O N S

 NSTEP =    10000   TIME(PS) =      20.000  TEMP(K) =    44.87  PRESS =     0.0
 Etot   =      1078.7604  EKtot   =       522.6861  EPtot      =       558.0358
 BOND   =       120.6366  ANGLE   =       273.6938  DIHED      =        81.6432
 1-4 NB =        20.4566  1-4 EEL =        39.8272  VDWAALS    =        54.9859
 EELEC  =       138.9884  EGB     =       117.6553  RESTRAINT  =         0.0000
 RM1ESCF=         8.3061
 CMAP   =         8.5368
 ------------------------------------------------------------------------------
