-------------------------------------------------------
          Amber 18 SANDER                              2018
          -------------------------------------------------------

  [-O]verwriting output

File Assignments:

 Here is the input file:

MD with GB7
 &cntrl
  nstlim = 10000, dt = 0.002,
  ntwr = 5000, ntwx = 500,
  ntc = 2, ntf = 2,
  ntt = 3, temp0 = 300, gamma_ln = 1.0,
  ntb = 0, igb = 7, cut = 9999.0,
  ifqnt = 1,
 /

 &qmmm
  qmmask = ':305', qmcharge = 0,
  qm_theory = 'RM1', qmcut = 20.0,
 /

--------------------------------------------------------------------------------
   1.  RESOURCE   USE:
--------------------------------------------------------------------------------

 NATOM  =    4676 NTYPES =      24 NBONH =    2308 MBONA  =    2422
 NTHETH =    5215 MTHETA =    3293 NPHIH =   10759 MPHIA  =   10499
 NHPARM =       0 NPARM  =       0 NNB   =   25729 NRES   =     305
 NBONA  =    2422 NTHETA =    3293 NPHIA =   10499 NUMBND =      89
 NUMANG =     202 NPTRA  =     207 NATYP =      47 NPHB   =       0
 IFBOX  =       0 NMXRS  =      30 IFCAP =       0 NEXTRA =       0
 NCOPY  =       0

 Implicit solvent radii are ArgH and AspGluO modified Bondi2 radii (mbondi3)
 Replacing prmtop screening parameters with GBn (igb=7) values

LOADING THE QUANTUM ATOMS AS GROUPS
     Mask :305; matches    30 atoms

--------------------------------------------------------------------------------
   2.  CONTROL  DATA  FOR  THE  RUN
--------------------------------------------------------------------------------

default_name

General flags:
     imin    =       0, nmropt  =       0

Nature and format of input:
     ntx     =       1, irest   =       0, ntrx    =       1

Nature and format of output:
     ntxo    =       2, ntpr    =      50, ntrx    =       1, ntwr    =    5000
     iwrap   =       0, ntwx    =     500, ntwv    =       0, ntwe    =       0
     ioutfm  =       1, ntwprt  =       0, idecomp =       0, rbornstat=      0

Potential function:
     ntf     =       2, ntb     =       0, igb     =       7, nsnb    =      25
     ipol    =       0, gbsa    =       0, iesp    =       0
     dielc   =   1.00000, cut     =9999.00000, intdiel =   1.00000
     saltcon =   0.00000, offset  =   0.09000, gbalpha=    1.09511
     gbbeta  =   1.90793, gbgamma =   2.50798, surften =   0.00500
     rdt     =   0.00000, rgbmax  =  25.00000  extdiel =  78.50000
     alpb  =        0

Frozen or restrained atoms:
     ibelly  =       0, ntr     =       0

Molecular dynamics:
     nstlim  =     10000, nscm    =      1000, nrespa  =         1
     t       =   0.00000, dt      =   0.00200, vlimit  =  20.00000

Langevin dynamics temperature regulation:
     ig      =   71277
     temp0   = 300.00000, tempi   =   0.00000, gamma_ln=   1.00000

SHAKE:
     ntc     =       2, jfastw  =       0
     tol     =   0.00001

QMMM options:
             ifqnt = True       nquant =       30
              qmgb =        2  qmcharge =        0   adjust_q =        2
              spin =        1     qmcut =  20.0000    qmshake =        1
          qmmm_int =        1
     lnk_atomic_no =        1   lnk_dis =   1.0900 lnk_method =        1
          qm_theory =     RM1 verbosity =        0
            qmqmdx = Analytical
      tight_p_conv = False (converge density to 0.05xSqrt[SCFCRT])
           scfconv = 0.100E-07  itrmax =     1000
      printcharges = False      printdipole = False      peptide_corr = False
    qmmmrij_incore = True
  qmqm_erep_incore = True
       pseudo_diag = True pseudo_diag_criteria =   0.0500
      diag_routine =        0
          qm_ewald =        0 qm_pme = False

--------------------------------------------------------------------------------
   3.  ATOMIC COORDINATES AND VELOCITIES
--------------------------------------------------------------------------------

default_name
 begin time read from input coords =     0.000 ps

 Number of triangulated 3-point waters found:        0
QMMM: ADJUSTING CHARGES
QMMM: ----------------------------------------------------------------------
QMMM: adjust_q = 2
QMMM: Uniformly adjusting the charge of MM atoms to conserve total charge.
QMMM:                             qm_charge =    0
QMMM: QM atom RESP charge sum (inc MM link) =   -0.001
QMMM: Adjusting each MM atom resp charge by =   -0.000
QMMM:          Sum of MM + QM region is now =   -3.001
QMMM: ----------------------------------------------------------------------

QMMM: Link Atom Information
QMMM: ------------------------------------------------------------------------
QMMM: nlink =     0
QMMM: ------------------------------------------------------------------------

  QMMM: QM Region Cartesian Coordinates (*=link atom)
  QMMM: QM_NO.   MM_NO.  ATOM         X         Y         Z
  QMMM:     1     4647      O        8.6821    1.1858   20.7452
  QMMM:     2     4648      C        8.2038    0.2057   21.3332
  QMMM:     3     4649      N        8.9459   -0.5948   22.1942
  QMMM:     4     4650      C       10.2699   -0.1692   22.5157
  QMMM:     5     4651      C       10.4406    1.0611   23.1550
  QMMM:     6     4652      C       11.7244    1.4910   23.4674
  QMMM:     7     4653      C       12.8212    0.7081   23.1287
  QMMM:     8     4654      C       12.6400   -0.5129   22.4909
  QMMM:     9     4655      C       11.3644   -0.9675   22.1793
  QMMM:    10     4656      N        6.8297   -0.1158   21.2028
  QMMM:    11     4657      C        6.1226    0.3786   20.1025
  QMMM:    12     4658      C        4.9209    1.0937   20.2477
  QMMM:    13     4659      C        4.3084    1.6484   19.0899
  QMMM:    14     4660      C        4.8708    1.4395   17.8040
  QMMM:    15     4661      N        5.9658    0.7003   17.6660
  QMMM:    16     4662      C        6.5558    0.1985   18.7962
  QMMM:    17     4663      H        8.6499   -1.5334   22.4550
  QMMM:    18     4664      H        9.5789    1.6976   23.3912
  QMMM:    19     4665      H       11.8618    2.4570   23.9685
  QMMM:    20     4666      H       13.8312    1.0781   23.3218
  QMMM:    21     4667      H       13.5085   -1.1157   22.2070
  QMMM:    22     4668      H       11.2308   -1.9150   21.6492
  QMMM:    23     4669      H        6.3115   -0.5646   21.9583
  QMMM:    24     4670      N        3.1684    2.3025   19.5260
  QMMM:    25     4671      H        4.4549    1.9083   16.9042
  QMMM:    26     4672      Cl       7.9920   -0.6836   18.5080
  QMMM:    27     4673      C        4.0787    1.4671   21.3475
  QMMM:    28     4674      N        3.0452    2.2053   20.8784
  QMMM:    29     4675      H        2.5598    2.9219   18.9830
  QMMM:    30     4676      H        4.2066    1.2203   22.4074

--------------------------------------------------------------------------------
  3.1 QM CALCULATION INFO
--------------------------------------------------------------------------------

QMMM: SINGLET STATE CALCULATION
QMMM: RHF CALCULATION, NO. OF DOUBLY OCCUPIED LEVELS = 50

--------------------------------------------------------------------------------
   4.  RESULTS
 NSTEP =        0   TIME(PS) =       0.000  TEMP(K) =     0.00  PRESS =     0.0
 Etot   =    -11952.1333  EKtot   =         0.0000  EPtot      =    -11952.1333
 BOND   =       144.2296  ANGLE   =       553.3183  DIHED      =      1187.9332
 1-4 NB =       949.1594  1-4 EEL =     12125.4445  VDWAALS    =     -2643.8250
 EELEC  =    -21550.2899  EGB     =     -2960.0486  RESTRAINT  =         0.0000
 RM1ESCF=        26.9230
 CMAP   =       215.0224
 ------------------------------------------------------------------------------

      A V E R A G E S   O V E R   10000 S T E P S

 NSTEP =    10000   TIME(PS) =      20.000  TEMP(K) =   284.81  PRESS =     0.0
 Etot   =     -5166.4650  EKtot   =      3316.5580  EPtot      =     -8483.0229
 BOND   =       885.7905  ANGLE   =      2276.4644  DIHED      =      1659.8862
 1-4 NB =      1043.3062  1-4 EEL =     12008.6967  VDWAALS    =     -2374.0653
 EELEC  =    -20935.6102  EGB     =     -3326.7574  RESTRAINT  =         0.0000
 RM1ESCF=        56.1312
 CMAP   =       223.1348
 ------------------------------------------------------------------------------

      R M S  F L U C T U A T I O N S

 NSTEP =    10000   TIME(PS) =      20.000  TEMP(K) =    45.03  PRESS =     0.0
 Etot   =      1081.3910  EKtot   =       524.4180  EPtot      =       558.8623
 BOND   =       120.5266  ANGLE   =       275.5078  DIHED      =        79.1784
 1-4 NB =        20.0537  1-4 EEL =        41.4153  VDWAALS    =        54.6202
 EELEC  =       130.8829  EGB     =        94.5260  RESTRAINT  =         0.0000
 RM1ESCF=         7.6114
 CMAP   =         9.1952
 ------------------------------------------------------------------------------
