-------------------------------------------------------
          Amber 18 SANDER                              2018
          -------------------------------------------------------

  [-O]verwriting output

File Assignments:

 Here is the input file:

MD with GB7
 &cntrl
  nstlim = 10000, dt = 0.002,
  ntwr = 5000, ntwx = 500,
  ntc = 2, ntf = 2,
  ntt = 3, temp0 = 300, gamma_ln = 1.0,
  ntb = 0, igb = 7, cut = 9999.0,
  ifqnt = 1,
 /

 &qmmm
  qmmask = ':305', qmcharge = 0,
  qm_theory = 'RM1', qmcut = 20.0,
 /

--------------------------------------------------------------------------------
   1.  RESOURCE   USE:
--------------------------------------------------------------------------------

 NATOM  =    4684 NTYPES =      24 NBONH =    2315 MBONA  =    2423
 NTHETH =    5236 MTHETA =    3294 NPHIH =   10790 MPHIA  =   10516
 NHPARM =       0 NPARM  =       0 NNB   =   25796 NRES   =     305
 NBONA  =    2423 NTHETA =    3294 NPHIA =   10516 NUMBND =      85
 NUMANG =     198 NPTRA  =     218 NATYP =      45 NPHB   =       0
 IFBOX  =       0 NMXRS  =      38 IFCAP =       0 NEXTRA =       0
 NCOPY  =       0

 Implicit solvent radii are ArgH and AspGluO modified Bondi2 radii (mbondi3)
 Replacing prmtop screening parameters with GBn (igb=7) values

LOADING THE QUANTUM ATOMS AS GROUPS
     Mask :305; matches    38 atoms

--------------------------------------------------------------------------------
   2.  CONTROL  DATA  FOR  THE  RUN
--------------------------------------------------------------------------------

default_name

General flags:
     imin    =       0, nmropt  =       0

Nature and format of input:
     ntx     =       1, irest   =       0, ntrx    =       1

Nature and format of output:
     ntxo    =       2, ntpr    =      50, ntrx    =       1, ntwr    =    5000
     iwrap   =       0, ntwx    =     500, ntwv    =       0, ntwe    =       0
     ioutfm  =       1, ntwprt  =       0, idecomp =       0, rbornstat=      0

Potential function:
     ntf     =       2, ntb     =       0, igb     =       7, nsnb    =      25
     ipol    =       0, gbsa    =       0, iesp    =       0
     dielc   =   1.00000, cut     =9999.00000, intdiel =   1.00000
     saltcon =   0.00000, offset  =   0.09000, gbalpha=    1.09511
     gbbeta  =   1.90793, gbgamma =   2.50798, surften =   0.00500
     rdt     =   0.00000, rgbmax  =  25.00000  extdiel =  78.50000
     alpb  =        0

Frozen or restrained atoms:
     ibelly  =       0, ntr     =       0

Molecular dynamics:
     nstlim  =     10000, nscm    =      1000, nrespa  =         1
     t       =   0.00000, dt      =   0.00200, vlimit  =  20.00000

Langevin dynamics temperature regulation:
     ig      =   71277
     temp0   = 300.00000, tempi   =   0.00000, gamma_ln=   1.00000

SHAKE:
     ntc     =       2, jfastw  =       0
     tol     =   0.00001

QMMM options:
             ifqnt = True       nquant =       38
              qmgb =        2  qmcharge =        0   adjust_q =        2
              spin =        1     qmcut =  20.0000    qmshake =        1
          qmmm_int =        1
     lnk_atomic_no =        1   lnk_dis =   1.0900 lnk_method =        1
          qm_theory =     RM1 verbosity =        0
            qmqmdx = Analytical
      tight_p_conv = False (converge density to 0.05xSqrt[SCFCRT])
           scfconv = 0.100E-07  itrmax =     1000
      printcharges = False      printdipole = False      peptide_corr = False
    qmmmrij_incore = True
  qmqm_erep_incore = True
       pseudo_diag = True pseudo_diag_criteria =   0.0500
      diag_routine =        0
          qm_ewald =        0 qm_pme = False

--------------------------------------------------------------------------------
   3.  ATOMIC COORDINATES AND VELOCITIES
--------------------------------------------------------------------------------

default_name
 begin time read from input coords =     0.000 ps

 Number of triangulated 3-point waters found:        0
QMMM: ADJUSTING CHARGES
QMMM: ----------------------------------------------------------------------
QMMM: adjust_q = 2
QMMM: Uniformly adjusting the charge of MM atoms to conserve total charge.
QMMM:                             qm_charge =    0
QMMM: QM atom RESP charge sum (inc MM link) =   -0.003
QMMM: Adjusting each MM atom resp charge by =   -0.000
QMMM:          Sum of MM + QM region is now =   -3.003
QMMM: ----------------------------------------------------------------------

QMMM: Link Atom Information
QMMM: ------------------------------------------------------------------------
QMMM: nlink =     0
QMMM: ------------------------------------------------------------------------

  QMMM: QM Region Cartesian Coordinates (*=link atom)
  QMMM: QM_NO.   MM_NO.  ATOM         X         Y         Z
  QMMM:     1     4647      O        9.4009    1.4247   20.9832
  QMMM:     2     4648      C        8.7835    0.9604   21.9381
  QMMM:     3     4649      C        9.3910    0.5726   23.2764
  QMMM:     4     4650      C       10.8758    0.2210   23.1201
  QMMM:     5     4651      C       11.0584   -0.9661   22.1727
  QMMM:     6     4652      C       12.2947   -1.7929   22.5220
  QMMM:     7     4653      C       13.4160   -0.9403   23.0969
  QMMM:     8     4654      C       12.9862   -0.2137   24.3690
  QMMM:     9     4655      C       11.4673   -0.1184   24.4890
  QMMM:    10     4656      N        7.3902    0.8189   21.8636
  QMMM:    11     4657      C        6.6394    0.9825   20.6917
  QMMM:    12     4658      C        5.3917    1.7082   20.7349
  QMMM:    13     4659      C        4.5269    1.6486   19.6256
  QMMM:    14     4660      C        5.0058    1.0145   18.4283
  QMMM:    15     4661      N        6.1852    0.4080   18.3510
  QMMM:    16     4662      C        6.9620    0.3749   19.4923
  QMMM:    17     4663      H        8.8494   -0.2830   23.7467
  QMMM:    18     4664      H        9.2537    1.4282   23.9793
  QMMM:    19     4665      H       11.4217    1.1094   22.7052
  QMMM:    20     4666      H       10.1694   -1.6322   22.1659
  QMMM:    21     4667      H       11.1115   -0.6032   21.1269
  QMMM:    22     4668      H       12.6487   -2.3286   21.6169
  QMMM:    23     4669      H       12.0304   -2.5978   23.2387
  QMMM:    24     4670      H       14.3056   -1.5769   23.2931
  QMMM:    25     4671      H       13.7582   -0.2094   22.3402
  QMMM:    26     4672      H       13.4135   -0.7254   25.2539
  QMMM:    27     4673      H       13.4378    0.8011   24.3964
  QMMM:    28     4674      H       11.1885    0.6450   25.2425
  QMMM:    29     4675      H       11.0373   -1.0637   24.8847
  QMMM:    30     4676      H        6.8601    0.6830   22.7401
  QMMM:    31     4677      N        5.0532    2.4180   21.8816
  QMMM:    32     4678      N        3.2404    2.1662   19.7277
  QMMM:    33     4679      H        4.4180    1.0619   17.4964
  QMMM:    34     4680      Cl       8.3805   -0.5440   19.3169
  QMMM:    35     4681      C        2.9092    2.7885   20.8481
  QMMM:    36     4682      C        3.8543    2.9704   21.9357
  QMMM:    37     4683      H        1.8659    3.1530   20.9526
  QMMM:    38     4684      H        3.6087    3.5373   22.8656

--------------------------------------------------------------------------------
  3.1 QM CALCULATION INFO
--------------------------------------------------------------------------------

QMMM: SINGLET STATE CALCULATION
QMMM: RHF CALCULATION, NO. OF DOUBLY OCCUPIED LEVELS = 55

--------------------------------------------------------------------------------
   4.  RESULTS
 NSTEP =        0   TIME(PS) =       0.000  TEMP(K) =     0.00  PRESS =     0.0
 Etot   =    -12003.0683  EKtot   =         0.0000  EPtot      =    -12003.0683
 BOND   =       144.7055  ANGLE   =       553.9384  DIHED      =      1187.5313
 1-4 NB =       946.9820  1-4 EEL =     12133.2621  VDWAALS    =     -2642.4188
 EELEC  =    -21546.8570  EGB     =     -2975.4546  RESTRAINT  =         0.0000
 RM1ESCF=       -15.9533
 CMAP   =       211.1962
 ------------------------------------------------------------------------------

      A V E R A G E S   O V E R   10000 S T E P S

 NSTEP =    10000   TIME(PS) =      20.000  TEMP(K) =   284.41  PRESS =     0.0
 Etot   =     -5212.6942  EKtot   =      3316.7364  EPtot      =     -8529.4306
 BOND   =       880.9135  ANGLE   =      2276.6059  DIHED      =      1658.5133
 1-4 NB =      1046.1056  1-4 EEL =     12040.5892  VDWAALS    =     -2371.4519
 EELEC  =    -20979.5548  EGB     =     -3321.2882  RESTRAINT  =         0.0000
 RM1ESCF=        15.5832
 CMAP   =       224.5536
 ------------------------------------------------------------------------------

      R M S  F L U C T U A T I O N S

 NSTEP =    10000   TIME(PS) =      20.000  TEMP(K) =    44.48  PRESS =     0.0
 Etot   =      1071.2926  EKtot   =       518.6960  EPtot      =       554.5626
 BOND   =       118.7274  ANGLE   =       273.3084  DIHED      =        80.7922
 1-4 NB =        20.4082  1-4 EEL =        40.5502  VDWAALS    =        53.0618
 EELEC  =       109.2668  EGB     =        81.3227  RESTRAINT  =         0.0000
 RM1ESCF=         9.3262
 CMAP   =         8.2194
 ------------------------------------------------------------------------------
