-------------------------------------------------------
          Amber 18 SANDER                              2018
          -------------------------------------------------------

  [-O]verwriting output

File Assignments:

 Here is the input file:

MD with GB7
 &cntrl
  nstlim = 10000, dt = 0.002,
  ntwr = 5000, ntwx = 500,
  ntc = 2, ntf = 2,
  ntt = 3, temp0 = 300, gamma_ln = 1.0,
  ntb = 0, igb = 7, cut = 9999.0,
  ifqnt = 1,
 /

 &qmmm
  qmmask = ':305', qmcharge = 0,
  qm_theory = 'RM1', qmcut = 20.0,
 /

--------------------------------------------------------------------------------
   1.  RESOURCE   USE:
--------------------------------------------------------------------------------

 NATOM  =    4673 NTYPES =      23 NBONH =    2308 MBONA  =    2418
 NTHETH =    5215 MTHETA =    3286 NPHIH =   10759 MPHIA  =   10485
 NHPARM =       0 NPARM  =       0 NNB   =   25709 NRES   =     305
 NBONA  =    2418 NTHETA =    3286 NPHIA =   10485 NUMBND =      83
 NUMANG =     193 NPTRA  =     204 NATYP =      44 NPHB   =       0
 IFBOX  =       0 NMXRS  =      27 IFCAP =       0 NEXTRA =       0
 NCOPY  =       0

 Implicit solvent radii are ArgH and AspGluO modified Bondi2 radii (mbondi3)
 Replacing prmtop screening parameters with GBn (igb=7) values

LOADING THE QUANTUM ATOMS AS GROUPS
     Mask :305; matches    27 atoms

--------------------------------------------------------------------------------
   2.  CONTROL  DATA  FOR  THE  RUN
--------------------------------------------------------------------------------

default_name

General flags:
     imin    =       0, nmropt  =       0

Nature and format of input:
     ntx     =       1, irest   =       0, ntrx    =       1

Nature and format of output:
     ntxo    =       2, ntpr    =      50, ntrx    =       1, ntwr    =    5000
     iwrap   =       0, ntwx    =     500, ntwv    =       0, ntwe    =       0
     ioutfm  =       1, ntwprt  =       0, idecomp =       0, rbornstat=      0

Potential function:
     ntf     =       2, ntb     =       0, igb     =       7, nsnb    =      25
     ipol    =       0, gbsa    =       0, iesp    =       0
     dielc   =   1.00000, cut     =9999.00000, intdiel =   1.00000
     saltcon =   0.00000, offset  =   0.09000, gbalpha=    1.09511
     gbbeta  =   1.90793, gbgamma =   2.50798, surften =   0.00500
     rdt     =   0.00000, rgbmax  =  25.00000  extdiel =  78.50000
     alpb  =        0

Frozen or restrained atoms:
     ibelly  =       0, ntr     =       0

Molecular dynamics:
     nstlim  =     10000, nscm    =      1000, nrespa  =         1
     t       =   0.00000, dt      =   0.00200, vlimit  =  20.00000

Langevin dynamics temperature regulation:
     ig      =   71277
     temp0   = 300.00000, tempi   =   0.00000, gamma_ln=   1.00000

SHAKE:
     ntc     =       2, jfastw  =       0
     tol     =   0.00001

QMMM options:
             ifqnt = True       nquant =       27
              qmgb =        2  qmcharge =        0   adjust_q =        2
              spin =        1     qmcut =  20.0000    qmshake =        1
          qmmm_int =        1
     lnk_atomic_no =        1   lnk_dis =   1.0900 lnk_method =        1
          qm_theory =     RM1 verbosity =        0
            qmqmdx = Analytical
      tight_p_conv = False (converge density to 0.05xSqrt[SCFCRT])
           scfconv = 0.100E-07  itrmax =     1000
      printcharges = False      printdipole = False      peptide_corr = False
    qmmmrij_incore = True
  qmqm_erep_incore = True
       pseudo_diag = True pseudo_diag_criteria =   0.0500
      diag_routine =        0
          qm_ewald =        0 qm_pme = False

--------------------------------------------------------------------------------
   3.  ATOMIC COORDINATES AND VELOCITIES
--------------------------------------------------------------------------------

default_name
 begin time read from input coords =     0.000 ps

 Number of triangulated 3-point waters found:        0
QMMM: ADJUSTING CHARGES
QMMM: ----------------------------------------------------------------------
QMMM: adjust_q = 2
QMMM: Uniformly adjusting the charge of MM atoms to conserve total charge.
QMMM:                             qm_charge =    0
QMMM: QM atom RESP charge sum (inc MM link) =   -0.001
QMMM: Adjusting each MM atom resp charge by =   -0.000
QMMM:          Sum of MM + QM region is now =   -3.001
QMMM: ----------------------------------------------------------------------

QMMM: Link Atom Information
QMMM: ------------------------------------------------------------------------
QMMM: nlink =     0
QMMM: ------------------------------------------------------------------------

  QMMM: QM Region Cartesian Coordinates (*=link atom)
  QMMM: QM_NO.   MM_NO.  ATOM         X         Y         Z
  QMMM:     1     4647      O        8.6034    1.2927   20.8062
  QMMM:     2     4648      C        8.0916    0.3542   21.4347
  QMMM:     3     4649      N        8.8140   -0.3995   22.3543
  QMMM:     4     4650      C       10.1584   -0.0087   22.6263
  QMMM:     5     4651      C       10.3939    1.2235   23.2358
  QMMM:     6     4652      C       11.7025    1.6165   23.4867
  QMMM:     7     4653      C       12.7595    0.7900   23.1281
  QMMM:     8     4654      C       12.5120   -0.4387   22.5280
  QMMM:     9     4655      C       11.2120   -0.8558   22.2787
  QMMM:    10     4656      N        6.7283    0.0113   21.2710
  QMMM:    11     4657      C        6.0703    0.5028   20.1295
  QMMM:    12     4658      C        4.8762    1.2363   20.2085
  QMMM:    13     4659      C        4.2917    1.6833   19.0357
  QMMM:    14     4660      C        4.9093    1.4051   17.8073
  QMMM:    15     4661      N        6.0433    0.6844   17.6972
  QMMM:    16     4662      C        6.5844    0.2488   18.8535
  QMMM:    17     4663      H        8.4833   -1.3004   22.7014
  QMMM:    18     4664      H        9.5611    1.8807   23.5151
  QMMM:    19     4665      H       11.8932    2.5865   23.9566
  QMMM:    20     4666      H       13.7915    1.1202   23.2872
  QMMM:    21     4667      H       13.3471   -1.0766   22.2232
  QMMM:    22     4668      H       11.0236   -1.8241   21.7987
  QMMM:    23     4669      H        6.1470   -0.3371   22.0402
  QMMM:    24     4670      H        4.4193    1.4681   21.1803
  QMMM:    25     4671      H        3.3720    2.2794   19.0587
  QMMM:    26     4672      H        4.5059    1.7906   16.8650
  QMMM:    27     4673      Cl       8.0251   -0.6600   18.6781

--------------------------------------------------------------------------------
  3.1 QM CALCULATION INFO
--------------------------------------------------------------------------------

QMMM: SINGLET STATE CALCULATION
QMMM: RHF CALCULATION, NO. OF DOUBLY OCCUPIED LEVELS = 43

--------------------------------------------------------------------------------
   4.  RESULTS
 NSTEP =        0   TIME(PS) =       0.000  TEMP(K) =     0.00  PRESS =     0.0
 Etot   =    -11943.3614  EKtot   =         0.0000  EPtot      =    -11943.3614
 BOND   =       142.3553  ANGLE   =       552.6730  DIHED      =      1193.0888
 1-4 NB =       954.6841  1-4 EEL =     12130.7180  VDWAALS    =     -2643.3490
 EELEC  =    -21546.3895  EGB     =     -2938.6205  RESTRAINT  =         0.0000
 RM1ESCF=        -7.8222
 CMAP   =       219.3006
 ------------------------------------------------------------------------------

      A V E R A G E S   O V E R   10000 S T E P S

 NSTEP =    10000   TIME(PS) =      20.000  TEMP(K) =   286.91  PRESS =     0.0
 Etot   =     -5134.5813  EKtot   =      3338.4495  EPtot      =     -8473.0308
 BOND   =       888.1453  ANGLE   =      2292.9919  DIHED      =      1663.8283
 1-4 NB =      1043.6513  1-4 EEL =     11986.7929  VDWAALS    =     -2354.5189
 EELEC  =    -20825.9793  EGB     =     -3408.1908  RESTRAINT  =         0.0000
 RM1ESCF=        19.6392
 CMAP   =       220.6094
 ------------------------------------------------------------------------------

      R M S  F L U C T U A T I O N S

 NSTEP =    10000   TIME(PS) =      20.000  TEMP(K) =    45.35  PRESS =     0.0
 Etot   =      1094.6734  EKtot   =       527.6755  EPtot      =       569.0838
 BOND   =       121.1460  ANGLE   =       279.1330  DIHED      =        81.8657
 1-4 NB =        19.9803  1-4 EEL =        44.2110  VDWAALS    =        59.5961
 EELEC  =       165.1182  EGB     =       123.7742  RESTRAINT  =         0.0000
 RM1ESCF=         8.4659
 CMAP   =         9.4095
 ------------------------------------------------------------------------------
