-------------------------------------------------------
          Amber 18 SANDER                              2018
          -------------------------------------------------------

  [-O]verwriting output

File Assignments:

 Here is the input file:

MD with GB7
 &cntrl
  nstlim = 10000, dt = 0.002,
  ntwr = 5000, ntwx = 500,
  ntc = 2, ntf = 2,
  ntt = 3, temp0 = 300, gamma_ln = 1.0,
  ntb = 0, igb = 7, cut = 9999.0,
  ifqnt = 1,
 /

 &qmmm
  qmmask = ':305', qmcharge = 0,
  qm_theory = 'RM1', qmcut = 20.0,
 /

--------------------------------------------------------------------------------
   1.  RESOURCE   USE:
--------------------------------------------------------------------------------

 NATOM  =    4678 NTYPES =      26 NBONH =    2311 MBONA  =    2420
 NTHETH =    5221 MTHETA =    3289 NPHIH =   10765 MPHIA  =   10490
 NHPARM =       0 NPARM  =       0 NNB   =   25734 NRES   =     305
 NBONA  =    2420 NTHETA =    3289 NPHIA =   10490 NUMBND =      87
 NUMANG =     199 NPTRA  =     207 NATYP =      47 NPHB   =       0
 IFBOX  =       0 NMXRS  =      32 IFCAP =       0 NEXTRA =       0
 NCOPY  =       0

 Implicit solvent radii are ArgH and AspGluO modified Bondi2 radii (mbondi3)
 Replacing prmtop screening parameters with GBn (igb=7) values

LOADING THE QUANTUM ATOMS AS GROUPS
     Mask :305; matches    32 atoms

--------------------------------------------------------------------------------
   2.  CONTROL  DATA  FOR  THE  RUN
--------------------------------------------------------------------------------

default_name

General flags:
     imin    =       0, nmropt  =       0

Nature and format of input:
     ntx     =       1, irest   =       0, ntrx    =       1

Nature and format of output:
     ntxo    =       2, ntpr    =      50, ntrx    =       1, ntwr    =    5000
     iwrap   =       0, ntwx    =     500, ntwv    =       0, ntwe    =       0
     ioutfm  =       1, ntwprt  =       0, idecomp =       0, rbornstat=      0

Potential function:
     ntf     =       2, ntb     =       0, igb     =       7, nsnb    =      25
     ipol    =       0, gbsa    =       0, iesp    =       0
     dielc   =   1.00000, cut     =9999.00000, intdiel =   1.00000
     saltcon =   0.00000, offset  =   0.09000, gbalpha=    1.09511
     gbbeta  =   1.90793, gbgamma =   2.50798, surften =   0.00500
     rdt     =   0.00000, rgbmax  =  25.00000  extdiel =  78.50000
     alpb  =        0

Frozen or restrained atoms:
     ibelly  =       0, ntr     =       0

Molecular dynamics:
     nstlim  =     10000, nscm    =      1000, nrespa  =         1
     t       =   0.00000, dt      =   0.00200, vlimit  =  20.00000

Langevin dynamics temperature regulation:
     ig      =   71277
     temp0   = 300.00000, tempi   =   0.00000, gamma_ln=   1.00000

SHAKE:
     ntc     =       2, jfastw  =       0
     tol     =   0.00001

QMMM options:
             ifqnt = True       nquant =       32
              qmgb =        2  qmcharge =        0   adjust_q =        2
              spin =        1     qmcut =  20.0000    qmshake =        1
          qmmm_int =        1
     lnk_atomic_no =        1   lnk_dis =   1.0900 lnk_method =        1
          qm_theory =     RM1 verbosity =        0
            qmqmdx = Analytical
      tight_p_conv = False (converge density to 0.05xSqrt[SCFCRT])
           scfconv = 0.100E-07  itrmax =     1000
      printcharges = False      printdipole = False      peptide_corr = False
    qmmmrij_incore = True
  qmqm_erep_incore = True
       pseudo_diag = True pseudo_diag_criteria =   0.0500
      diag_routine =        0
          qm_ewald =        0 qm_pme = False

--------------------------------------------------------------------------------
   3.  ATOMIC COORDINATES AND VELOCITIES
--------------------------------------------------------------------------------

default_name
 begin time read from input coords =     0.000 ps

 Number of triangulated 3-point waters found:        0
QMMM: ADJUSTING CHARGES
QMMM: ----------------------------------------------------------------------
QMMM: adjust_q = 2
QMMM: Uniformly adjusting the charge of MM atoms to conserve total charge.
QMMM:                             qm_charge =    0
QMMM: QM atom RESP charge sum (inc MM link) =   -0.001
QMMM: Adjusting each MM atom resp charge by =   -0.000
QMMM:          Sum of MM + QM region is now =   -3.001
QMMM: ----------------------------------------------------------------------

QMMM: Link Atom Information
QMMM: ------------------------------------------------------------------------
QMMM: nlink =     0
QMMM: ------------------------------------------------------------------------

  QMMM: QM Region Cartesian Coordinates (*=link atom)
  QMMM: QM_NO.   MM_NO.  ATOM         X         Y         Z
  QMMM:     1     4647      O        8.6267    1.2667   20.7658
  QMMM:     2     4648      C        8.1251    0.3137   21.3797
  QMMM:     3     4649      N        8.8568   -0.4840   22.2539
  QMMM:     4     4650      C       10.2009   -0.1038   22.5445
  QMMM:     5     4651      C       10.4350    1.1201   23.1755
  QMMM:     6     4652      C       11.7413    1.4991   23.4582
  QMMM:     7     4653      C       12.7986    0.6692   23.1111
  QMMM:     8     4654      C       12.5554   -0.5496   22.4907
  QMMM:     9     4655      C       11.2570   -0.9549   22.2095
  QMMM:    10     4656      N        6.7474    0.0096   21.2498
  QMMM:    11     4657      C        6.0801    0.5488   20.1286
  QMMM:    12     4658      C        4.9422    1.3430   20.2639
  QMMM:    13     4659      C        4.3272    1.8394   19.1067
  QMMM:    14     4660      C        4.8916    1.4902   17.8406
  QMMM:    15     4661      N        5.9786    0.7226   17.7029
  QMMM:    16     4662      C        6.5407    0.2593   18.8396
  QMMM:    17     4663      H        8.5321   -1.4055   22.5502
  QMMM:    18     4664      H        9.6029    1.7783   23.4492
  QMMM:    19     4665      H       11.9279    2.4604   23.9470
  QMMM:    20     4666      H       13.8263    0.9867   23.3050
  QMMM:    21     4667      H       13.3923   -1.1922   22.1991
  QMMM:    22     4668      H       11.0722   -1.9194   21.7212
  QMMM:    23     4669      H        6.1762   -0.3237   22.0345
  QMMM:    24     4670      H        4.5677    1.5905   21.2639
  QMMM:    25     4671      N        3.1463    2.5581   19.1533
  QMMM:    26     4672      H        4.4841    1.8702   16.8974
  QMMM:    27     4673      Cl       7.9247   -0.7205   18.6264
  QMMM:    28     4674      C        2.6534    3.1103   20.4198
  QMMM:    29     4675      H        2.9050    3.0794   18.3103
  QMMM:    30     4676      H        1.7727    3.7436   20.2101
  QMMM:    31     4677      H        2.3334    2.3133   21.1189
  QMMM:    32     4678      H        3.3816    3.7472   20.9563

--------------------------------------------------------------------------------
  3.1 QM CALCULATION INFO
--------------------------------------------------------------------------------

QMMM: SINGLET STATE CALCULATION
QMMM: RHF CALCULATION, NO. OF DOUBLY OCCUPIED LEVELS = 49

--------------------------------------------------------------------------------
   4.  RESULTS
 NSTEP =        0   TIME(PS) =       0.000  TEMP(K) =     0.00  PRESS =     0.0
 Etot   =    -11990.3271  EKtot   =         0.0000  EPtot      =    -11990.3271
 BOND   =       144.1932  ANGLE   =       553.9964  DIHED      =      1186.8193
 1-4 NB =       949.1353  1-4 EEL =     12118.7967  VDWAALS    =     -2641.9154
 EELEC  =    -21557.5294  EGB     =     -2940.1540  RESTRAINT  =         0.0000
 RM1ESCF=       -18.7841
 CMAP   =       215.1150
 ------------------------------------------------------------------------------

      A V E R A G E S   O V E R   10000 S T E P S

 NSTEP =    10000   TIME(PS) =      20.000  TEMP(K) =   285.15  PRESS =     0.0
 Etot   =     -5185.4577  EKtot   =      3321.4108  EPtot      =     -8506.8685
 BOND   =       883.4235  ANGLE   =      2281.2020  DIHED      =      1660.0729
 1-4 NB =      1042.2554  1-4 EEL =     12001.6611  VDWAALS    =     -2364.0654
 EELEC  =    -20945.5331  EGB     =     -3310.9263  RESTRAINT  =         0.0000
 RM1ESCF=        19.2259
 CMAP   =       225.8154
 ------------------------------------------------------------------------------

      R M S  F L U C T U A T I O N S

 NSTEP =    10000   TIME(PS) =      20.000  TEMP(K) =    44.80  PRESS =     0.0
 Etot   =      1078.9129  EKtot   =       521.7713  EPtot      =       559.1227
 BOND   =       120.1374  ANGLE   =       273.6703  DIHED      =        80.9615
 1-4 NB =        20.1382  1-4 EEL =        41.0178  VDWAALS    =        54.2266
 EELEC  =       139.8957  EGB     =       112.7210  RESTRAINT  =         0.0000
 RM1ESCF=        10.2076
 CMAP   =         8.8586
 ------------------------------------------------------------------------------
