-------------------------------------------------------
          Amber 18 SANDER                              2018
          -------------------------------------------------------

  [-O]verwriting output

File Assignments:

 Here is the input file:

MD with GB7
 &cntrl
  nstlim = 10000, dt = 0.002,
  ntwr = 5000, ntwx = 500,
  ntc = 2, ntf = 2,
  ntt = 3, temp0 = 300, gamma_ln = 1.0,
  ntb = 0, igb = 7, cut = 9999.0,
  ifqnt = 1,
 /

 &qmmm
  qmmask = ':305', qmcharge = 0,
  qm_theory = 'RM1', qmcut = 20.0,
 /

--------------------------------------------------------------------------------
   1.  RESOURCE   USE:
--------------------------------------------------------------------------------

 NATOM  =    4676 NTYPES =      24 NBONH =    2308 MBONA  =    2422
 NTHETH =    5215 MTHETA =    3293 NPHIH =   10759 MPHIA  =   10499
 NHPARM =       0 NPARM  =       0 NNB   =   25728 NRES   =     305
 NBONA  =    2422 NTHETA =    3293 NPHIA =   10499 NUMBND =      89
 NUMANG =     206 NPTRA  =     207 NATYP =      47 NPHB   =       0
 IFBOX  =       0 NMXRS  =      30 IFCAP =       0 NEXTRA =       0
 NCOPY  =       0

 Implicit solvent radii are ArgH and AspGluO modified Bondi2 radii (mbondi3)
 Replacing prmtop screening parameters with GBn (igb=7) values

LOADING THE QUANTUM ATOMS AS GROUPS
     Mask :305; matches    30 atoms

--------------------------------------------------------------------------------
   2.  CONTROL  DATA  FOR  THE  RUN
--------------------------------------------------------------------------------

default_name

General flags:
     imin    =       0, nmropt  =       0

Nature and format of input:
     ntx     =       1, irest   =       0, ntrx    =       1

Nature and format of output:
     ntxo    =       2, ntpr    =      50, ntrx    =       1, ntwr    =    5000
     iwrap   =       0, ntwx    =     500, ntwv    =       0, ntwe    =       0
     ioutfm  =       1, ntwprt  =       0, idecomp =       0, rbornstat=      0

Potential function:
     ntf     =       2, ntb     =       0, igb     =       7, nsnb    =      25
     ipol    =       0, gbsa    =       0, iesp    =       0
     dielc   =   1.00000, cut     =9999.00000, intdiel =   1.00000
     saltcon =   0.00000, offset  =   0.09000, gbalpha=    1.09511
     gbbeta  =   1.90793, gbgamma =   2.50798, surften =   0.00500
     rdt     =   0.00000, rgbmax  =  25.00000  extdiel =  78.50000
     alpb  =        0

Frozen or restrained atoms:
     ibelly  =       0, ntr     =       0

Molecular dynamics:
     nstlim  =     10000, nscm    =      1000, nrespa  =         1
     t       =   0.00000, dt      =   0.00200, vlimit  =  20.00000

Langevin dynamics temperature regulation:
     ig      =   71277
     temp0   = 300.00000, tempi   =   0.00000, gamma_ln=   1.00000

SHAKE:
     ntc     =       2, jfastw  =       0
     tol     =   0.00001

QMMM options:
             ifqnt = True       nquant =       30
              qmgb =        2  qmcharge =        0   adjust_q =        2
              spin =        1     qmcut =  20.0000    qmshake =        1
          qmmm_int =        1
     lnk_atomic_no =        1   lnk_dis =   1.0900 lnk_method =        1
          qm_theory =     RM1 verbosity =        0
            qmqmdx = Analytical
      tight_p_conv = False (converge density to 0.05xSqrt[SCFCRT])
           scfconv = 0.100E-07  itrmax =     1000
      printcharges = False      printdipole = False      peptide_corr = False
    qmmmrij_incore = True
  qmqm_erep_incore = True
       pseudo_diag = True pseudo_diag_criteria =   0.0500
      diag_routine =        0
          qm_ewald =        0 qm_pme = False

--------------------------------------------------------------------------------
   3.  ATOMIC COORDINATES AND VELOCITIES
--------------------------------------------------------------------------------

default_name
 begin time read from input coords =     0.000 ps

 Number of triangulated 3-point waters found:        0
QMMM: ADJUSTING CHARGES
QMMM: ----------------------------------------------------------------------
QMMM: adjust_q = 2
QMMM: Uniformly adjusting the charge of MM atoms to conserve total charge.
QMMM:                             qm_charge =    0
QMMM: QM atom RESP charge sum (inc MM link) =   -0.002
QMMM: Adjusting each MM atom resp charge by =   -0.000
QMMM:          Sum of MM + QM region is now =   -3.002
QMMM: ----------------------------------------------------------------------

QMMM: Link Atom Information
QMMM: ------------------------------------------------------------------------
QMMM: nlink =     0
QMMM: ------------------------------------------------------------------------

  QMMM: QM Region Cartesian Coordinates (*=link atom)
  QMMM: QM_NO.   MM_NO.  ATOM         X         Y         Z
  QMMM:     1     4647      O        8.6789    1.2278   20.7505
  QMMM:     2     4648      C        8.2874    0.2065   21.3409
  QMMM:     3     4649      N        9.0863   -0.5711   22.1622
  QMMM:     4     4650      C       10.4013   -0.1022   22.4582
  QMMM:     5     4651      C       10.5568    1.1498   23.0572
  QMMM:     6     4652      C       11.8383    1.5922   23.3580
  QMMM:     7     4653      C       12.9371    0.7971   23.0561
  QMMM:     8     4654      C       12.7648   -0.4497   22.4678
  QMMM:     9     4655      C       11.4955   -0.9177   22.1627
  QMMM:    10     4656      N        6.9282   -0.2034   21.2325
  QMMM:    11     4657      C        6.1763    0.3058   20.1686
  QMMM:    12     4658      N        4.9801    0.9911   20.4315
  QMMM:    13     4659      C        4.1861    1.4755   19.3405
  QMMM:    14     4660      C        4.6987    1.3131   18.0083
  QMMM:    15     4661      N        5.8300    0.6852   17.7526
  QMMM:    16     4662      C        6.5286    0.1793   18.8424
  QMMM:    17     4663      H        8.8309   -1.5146   22.4553
  QMMM:    18     4664      H        9.6873    1.7747   23.2880
  QMMM:    19     4665      H       11.9690    2.5738   23.8279
  QMMM:    20     4666      H       13.9437    1.1663   23.2672
  QMMM:    21     4667      H       13.6356   -1.0657   22.2218
  QMMM:    22     4668      H       11.3582   -1.8972   21.6912
  QMMM:    23     4669      H        6.4698   -0.8007   21.9296
  QMMM:    24     4670      N        3.0467    2.0300   19.8142
  QMMM:    25     4671      H        4.1323    1.7428   17.1635
  QMMM:    26     4672      Cl       7.9536   -0.6350   18.4455
  QMMM:    27     4673      C        4.2850    1.2789   21.6075
  QMMM:    28     4674      H        4.6349    1.0497   22.6259
  QMMM:    29     4675      C        3.1056    1.9194   21.1976
  QMMM:    30     4676      H        2.2996    2.3085   21.8322

--------------------------------------------------------------------------------
  3.1 QM CALCULATION INFO
--------------------------------------------------------------------------------

QMMM: SINGLET STATE CALCULATION
QMMM: RHF CALCULATION, NO. OF DOUBLY OCCUPIED LEVELS = 50

--------------------------------------------------------------------------------
   4.  RESULTS
 NSTEP =        0   TIME(PS) =       0.000  TEMP(K) =     0.00  PRESS =     0.0
 Etot   =    -11953.3568  EKtot   =         0.0000  EPtot      =    -11953.3568
 BOND   =       144.0357  ANGLE   =       553.0667  DIHED      =      1188.0522
 1-4 NB =       949.3619  1-4 EEL =     12126.5858  VDWAALS    =     -2643.0846
 EELEC  =    -21553.5167  EGB     =     -2974.6833  RESTRAINT  =         0.0000
 RM1ESCF=        41.7976
 CMAP   =       215.0279
 ------------------------------------------------------------------------------

      A V E R A G E S   O V E R   10000 S T E P S

 NSTEP =    10000   TIME(PS) =      20.000  TEMP(K) =   285.70  PRESS =     0.0
 Etot   =     -5130.8131  EKtot   =      3326.9218  EPtot      =     -8457.7350
 BOND   =       888.5753  ANGLE   =      2283.7151  DIHED      =      1661.6686
 1-4 NB =      1043.6840  1-4 EEL =     12001.9253  VDWAALS    =     -2367.4736
 EELEC  =    -20862.5107  EGB     =     -3395.6713  RESTRAINT  =         0.0000
 RM1ESCF=        66.0879
 CMAP   =       222.2644
 ------------------------------------------------------------------------------

      R M S  F L U C T U A T I O N S

 NSTEP =    10000   TIME(PS) =      20.000  TEMP(K) =    45.30  PRESS =     0.0
 Etot   =      1093.1358  EKtot   =       527.5626  EPtot      =       567.5208
 BOND   =       121.5615  ANGLE   =       277.2743  DIHED      =        79.3624
 1-4 NB =        19.9033  1-4 EEL =        43.4359  VDWAALS    =        58.3415
 EELEC  =       159.1481  EGB     =       115.2691  RESTRAINT  =         0.0000
 RM1ESCF=         6.4430
 CMAP   =         9.1233
 ------------------------------------------------------------------------------
