-------------------------------------------------------
          Amber 18 SANDER                              2018
          -------------------------------------------------------

  [-O]verwriting output

File Assignments:

 Here is the input file:

MD with GB7
 &cntrl
  nstlim = 10000, dt = 0.002,
  ntwr = 5000, ntwx = 500,
  ntc = 2, ntf = 2,
  ntt = 3, temp0 = 300, gamma_ln = 1.0,
  ntb = 0, igb = 7, cut = 9999.0,
  ifqnt = 1,
 /

 &qmmm
  qmmask = ':305', qmcharge = 0,
  qm_theory = 'RM1', qmcut = 20.0,
 /

--------------------------------------------------------------------------------
   1.  RESOURCE   USE:
--------------------------------------------------------------------------------

 NATOM  =    4685 NTYPES =      27 NBONH =    2318 MBONA  =    2420
 NTHETH =    5242 MTHETA =    3289 NPHIH =   10797 MPHIA  =   10506
 NHPARM =       0 NPARM  =       0 NNB   =   25798 NRES   =     305
 NBONA  =    2420 NTHETA =    3289 NPHIA =   10506 NUMBND =      90
 NUMANG =     205 NPTRA  =     221 NATYP =      48 NPHB   =       0
 IFBOX  =       0 NMXRS  =      39 IFCAP =       0 NEXTRA =       0
 NCOPY  =       0

 Implicit solvent radii are ArgH and AspGluO modified Bondi2 radii (mbondi3)
 Replacing prmtop screening parameters with GBn (igb=7) values

LOADING THE QUANTUM ATOMS AS GROUPS
     Mask :305; matches    39 atoms

--------------------------------------------------------------------------------
   2.  CONTROL  DATA  FOR  THE  RUN
--------------------------------------------------------------------------------

default_name

General flags:
     imin    =       0, nmropt  =       0

Nature and format of input:
     ntx     =       1, irest   =       0, ntrx    =       1

Nature and format of output:
     ntxo    =       2, ntpr    =      50, ntrx    =       1, ntwr    =    5000
     iwrap   =       0, ntwx    =     500, ntwv    =       0, ntwe    =       0
     ioutfm  =       1, ntwprt  =       0, idecomp =       0, rbornstat=      0

Potential function:
     ntf     =       2, ntb     =       0, igb     =       7, nsnb    =      25
     ipol    =       0, gbsa    =       0, iesp    =       0
     dielc   =   1.00000, cut     =9999.00000, intdiel =   1.00000
     saltcon =   0.00000, offset  =   0.09000, gbalpha=    1.09511
     gbbeta  =   1.90793, gbgamma =   2.50798, surften =   0.00500
     rdt     =   0.00000, rgbmax  =  25.00000  extdiel =  78.50000
     alpb  =        0

Frozen or restrained atoms:
     ibelly  =       0, ntr     =       0

Molecular dynamics:
     nstlim  =     10000, nscm    =      1000, nrespa  =         1
     t       =   0.00000, dt      =   0.00200, vlimit  =  20.00000

Langevin dynamics temperature regulation:
     ig      =   71277
     temp0   = 300.00000, tempi   =   0.00000, gamma_ln=   1.00000

SHAKE:
     ntc     =       2, jfastw  =       0
     tol     =   0.00001

QMMM options:
             ifqnt = True       nquant =       39
              qmgb =        2  qmcharge =        0   adjust_q =        2
              spin =        1     qmcut =  20.0000    qmshake =        1
          qmmm_int =        1
     lnk_atomic_no =        1   lnk_dis =   1.0900 lnk_method =        1
          qm_theory =     RM1 verbosity =        0
            qmqmdx = Analytical
      tight_p_conv = False (converge density to 0.05xSqrt[SCFCRT])
           scfconv = 0.100E-07  itrmax =     1000
      printcharges = False      printdipole = False      peptide_corr = False
    qmmmrij_incore = True
  qmqm_erep_incore = True
       pseudo_diag = True pseudo_diag_criteria =   0.0500
      diag_routine =        0
          qm_ewald =        0 qm_pme = False

--------------------------------------------------------------------------------
   3.  ATOMIC COORDINATES AND VELOCITIES
--------------------------------------------------------------------------------

default_name
 begin time read from input coords =     0.000 ps

 Number of triangulated 3-point waters found:        0
QMMM: ADJUSTING CHARGES
QMMM: ----------------------------------------------------------------------
QMMM: adjust_q = 2
QMMM: Uniformly adjusting the charge of MM atoms to conserve total charge.
QMMM:                             qm_charge =    0
QMMM: QM atom RESP charge sum (inc MM link) =    0.000
QMMM: Adjusting each MM atom resp charge by =    0.000
QMMM:          Sum of MM + QM region is now =   -3.000
QMMM: ----------------------------------------------------------------------

QMMM: Link Atom Information
QMMM: ------------------------------------------------------------------------
QMMM: nlink =     0
QMMM: ------------------------------------------------------------------------

  QMMM: QM Region Cartesian Coordinates (*=link atom)
  QMMM: QM_NO.   MM_NO.  ATOM         X         Y         Z
  QMMM:     1     4647      O        9.1664    1.2930   20.9814
  QMMM:     2     4648      C        8.5784    0.6542   21.8554
  QMMM:     3     4649      C        9.1933    0.2604   23.1854
  QMMM:     4     4650      C       10.7153    0.1287   23.0746
  QMMM:     5     4651      C       11.0691   -0.9959   22.1007
  QMMM:     6     4652      C       12.3146   -1.7705   22.5198
  QMMM:     7     4653      C       13.3700   -0.8620   23.1319
  QMMM:     8     4654      C       12.8414   -0.1019   24.3466
  QMMM:     9     4655      C       11.3206   -0.1487   24.4508
  QMMM:    10     4656      N        7.2305    0.3252   21.6872
  QMMM:    11     4657      C        6.5266    0.6326   20.5035
  QMMM:    12     4658      C        5.3423    1.3739   20.5693
  QMMM:    13     4659      C        4.6737    1.6768   19.3716
  QMMM:    14     4660      C        5.2536    1.2467   18.1427
  QMMM:    15     4661      N        6.3728    0.5169   18.0734
  QMMM:    16     4662      C        6.9704    0.2054   19.2432
  QMMM:    17     4663      H        8.7563   -0.6841   23.5820
  QMMM:    18     4664      H        8.9269    1.0508   23.9243
  QMMM:    19     4665      H       11.1523    1.0934   22.6996
  QMMM:    20     4666      H       10.2310   -1.7140   21.9557
  QMMM:    21     4667      H       11.1985   -0.5548   21.0966
  QMMM:    22     4668      H       12.7407   -2.3024   21.6440
  QMMM:    23     4669      H       12.0446   -2.5770   23.2347
  QMMM:    24     4670      H       14.2582   -1.4643   23.4184
  QMMM:    25     4671      H       13.7497   -0.1502   22.3706
  QMMM:    26     4672      H       13.3098   -0.4919   25.2739
  QMMM:    27     4673      H       13.1681    0.9572   24.2973
  QMMM:    28     4674      H       10.9626    0.5852   25.2018
  QMMM:    29     4675      H       10.9764   -1.1234   24.8500
  QMMM:    30     4676      H        6.6949   -0.0707   22.4655
  QMMM:    31     4677      H        4.9751    1.7156   21.5476
  QMMM:    32     4678      N        3.4390    2.3000   19.3244
  QMMM:    33     4679      H        4.8184    1.5329   17.1788
  QMMM:    34     4680      Cl       8.3599   -0.7742   19.0842
  QMMM:    35     4681      C        2.8723    2.8834   20.5414
  QMMM:    36     4682      H        3.2069    2.7604   18.4440
  QMMM:    37     4683      H        1.9191    3.3974   20.3144
  QMMM:    38     4684      H        2.6934    2.0920   21.2910
  QMMM:    39     4685      H        3.5284    3.6439   21.0042

--------------------------------------------------------------------------------
  3.1 QM CALCULATION INFO
--------------------------------------------------------------------------------

QMMM: SINGLET STATE CALCULATION
QMMM: RHF CALCULATION, NO. OF DOUBLY OCCUPIED LEVELS = 52

--------------------------------------------------------------------------------
   4.  RESULTS
 NSTEP =        0   TIME(PS) =       0.000  TEMP(K) =     0.00  PRESS =     0.0
 Etot   =    -12034.5778  EKtot   =         0.0000  EPtot      =    -12034.5778
 BOND   =       144.5185  ANGLE   =       552.9113  DIHED      =      1189.9547
 1-4 NB =       947.8686  1-4 EEL =     12133.7692  VDWAALS    =     -2641.3476
 EELEC  =    -21552.4113  EGB     =     -2948.2129  RESTRAINT  =         0.0000
 RM1ESCF=       -74.0893
 CMAP   =       212.4610
 ------------------------------------------------------------------------------

      A V E R A G E S   O V E R   10000 S T E P S

 NSTEP =    10000   TIME(PS) =      20.000  TEMP(K) =   285.74  PRESS =     0.0
 Etot   =     -5222.7334  EKtot   =      3332.2427  EPtot      =     -8554.9761
 BOND   =       882.2781  ANGLE   =      2282.8198  DIHED      =      1662.7169
 1-4 NB =      1045.4316  1-4 EEL =     12028.8735  VDWAALS    =     -2379.7532
 EELEC  =    -20936.3046  EGB     =     -3333.3253  RESTRAINT  =         0.0000
 RM1ESCF=       -29.3107
 CMAP   =       221.5980
 ------------------------------------------------------------------------------

      R M S  F L U C T U A T I O N S

 NSTEP =    10000   TIME(PS) =      20.000  TEMP(K) =    45.04  PRESS =     0.0
 Etot   =      1084.6803  EKtot   =       525.2220  EPtot      =       561.4249
 BOND   =       119.7741  ANGLE   =       277.0868  DIHED      =        79.5636
 1-4 NB =        20.5999  1-4 EEL =        41.6087  VDWAALS    =        51.4302
 EELEC  =       134.8275  EGB     =       102.1296  RESTRAINT  =         0.0000
 RM1ESCF=        11.6694
 CMAP   =         8.2812
 ------------------------------------------------------------------------------
