-------------------------------------------------------
          Amber 18 SANDER                              2018
          -------------------------------------------------------

  [-O]verwriting output

File Assignments:

 Here is the input file:

MD with GB7
 &cntrl
  nstlim = 10000, dt = 0.002,
  ntwr = 5000, ntwx = 500,
  ntc = 2, ntf = 2,
  ntt = 3, temp0 = 300, gamma_ln = 1.0,
  ntb = 0, igb = 7, cut = 9999.0,
  ifqnt = 1,
 /

 &qmmm
  qmmask = ':305', qmcharge = 0,
  qm_theory = 'RM1', qmcut = 20.0,
 /

--------------------------------------------------------------------------------
   1.  RESOURCE   USE:
--------------------------------------------------------------------------------

 NATOM  =    4682 NTYPES =      26 NBONH =    2316 MBONA  =    2419
 NTHETH =    5237 MTHETA =    3288 NPHIH =   10793 MPHIA  =   10504
 NHPARM =       0 NPARM  =       0 NNB   =   25783 NRES   =     305
 NBONA  =    2419 NTHETA =    3288 NPHIA =   10504 NUMBND =      88
 NUMANG =     202 NPTRA  =     219 NATYP =      47 NPHB   =       0
 IFBOX  =       0 NMXRS  =      36 IFCAP =       0 NEXTRA =       0
 NCOPY  =       0

 Implicit solvent radii are ArgH and AspGluO modified Bondi2 radii (mbondi3)
 Replacing prmtop screening parameters with GBn (igb=7) values

LOADING THE QUANTUM ATOMS AS GROUPS
     Mask :305; matches    36 atoms

--------------------------------------------------------------------------------
   2.  CONTROL  DATA  FOR  THE  RUN
--------------------------------------------------------------------------------

default_name

General flags:
     imin    =       0, nmropt  =       0

Nature and format of input:
     ntx     =       1, irest   =       0, ntrx    =       1

Nature and format of output:
     ntxo    =       2, ntpr    =      50, ntrx    =       1, ntwr    =    5000
     iwrap   =       0, ntwx    =     500, ntwv    =       0, ntwe    =       0
     ioutfm  =       1, ntwprt  =       0, idecomp =       0, rbornstat=      0

Potential function:
     ntf     =       2, ntb     =       0, igb     =       7, nsnb    =      25
     ipol    =       0, gbsa    =       0, iesp    =       0
     dielc   =   1.00000, cut     =9999.00000, intdiel =   1.00000
     saltcon =   0.00000, offset  =   0.09000, gbalpha=    1.09511
     gbbeta  =   1.90793, gbgamma =   2.50798, surften =   0.00500
     rdt     =   0.00000, rgbmax  =  25.00000  extdiel =  78.50000
     alpb  =        0

Frozen or restrained atoms:
     ibelly  =       0, ntr     =       0

Molecular dynamics:
     nstlim  =     10000, nscm    =      1000, nrespa  =         1
     t       =   0.00000, dt      =   0.00200, vlimit  =  20.00000

Langevin dynamics temperature regulation:
     ig      =   71277
     temp0   = 300.00000, tempi   =   0.00000, gamma_ln=   1.00000

SHAKE:
     ntc     =       2, jfastw  =       0
     tol     =   0.00001

QMMM options:
             ifqnt = True       nquant =       36
              qmgb =        2  qmcharge =        0   adjust_q =        2
              spin =        1     qmcut =  20.0000    qmshake =        1
          qmmm_int =        1
     lnk_atomic_no =        1   lnk_dis =   1.0900 lnk_method =        1
          qm_theory =     RM1 verbosity =        0
            qmqmdx = Analytical
      tight_p_conv = False (converge density to 0.05xSqrt[SCFCRT])
           scfconv = 0.100E-07  itrmax =     1000
      printcharges = False      printdipole = False      peptide_corr = False
    qmmmrij_incore = True
  qmqm_erep_incore = True
       pseudo_diag = True pseudo_diag_criteria =   0.0500
      diag_routine =        0
          qm_ewald =        0 qm_pme = False

--------------------------------------------------------------------------------
   3.  ATOMIC COORDINATES AND VELOCITIES
--------------------------------------------------------------------------------

default_name
 begin time read from input coords =     0.000 ps

 Number of triangulated 3-point waters found:        0
QMMM: ADJUSTING CHARGES
QMMM: ----------------------------------------------------------------------
QMMM: adjust_q = 2
QMMM: Uniformly adjusting the charge of MM atoms to conserve total charge.
QMMM:                             qm_charge =    0
QMMM: QM atom RESP charge sum (inc MM link) =   -0.001
QMMM: Adjusting each MM atom resp charge by =   -0.000
QMMM:          Sum of MM + QM region is now =   -3.001
QMMM: ----------------------------------------------------------------------

QMMM: Link Atom Information
QMMM: ------------------------------------------------------------------------
QMMM: nlink =     0
QMMM: ------------------------------------------------------------------------

  QMMM: QM Region Cartesian Coordinates (*=link atom)
  QMMM: QM_NO.   MM_NO.  ATOM         X         Y         Z
  QMMM:     1     4647      O        9.1537    1.3064   20.9933
  QMMM:     2     4648      C        8.5681    0.6668   21.8618
  QMMM:     3     4649      C        9.1804    0.2476   23.1838
  QMMM:     4     4650      C       10.7061    0.1383   23.0750
  QMMM:     5     4651      C       11.0905   -0.9626   22.0840
  QMMM:     6     4652      C       12.3199   -1.7581   22.5128
  QMMM:     7     4653      C       13.3757   -0.8643   23.1422
  QMMM:     8     4654      C       12.8340   -0.0901   24.3421
  QMMM:     9     4655      C       11.3128   -0.1515   24.4474
  QMMM:    10     4656      N        7.2141    0.3456   21.6924
  QMMM:    11     4657      C        6.5190    0.6634   20.5079
  QMMM:    12     4658      C        5.3524    1.4283   20.5553
  QMMM:    13     4659      C        4.6898    1.7300   19.3535
  QMMM:    14     4660      C        5.2395    1.2410   18.1365
  QMMM:    15     4661      N        6.3467    0.4918   18.0821
  QMMM:    16     4662      C        6.9490    0.2015   19.2539
  QMMM:    17     4663      H        8.7541   -0.7148   23.5473
  QMMM:    18     4664      H        8.8911    1.0056   23.9474
  QMMM:    19     4665      H       11.1148    1.1183   22.7125
  QMMM:    20     4666      H       10.2541   -1.6707   21.9021
  QMMM:    21     4667      H       11.2521   -0.4959   21.0948
  QMMM:    22     4668      H       12.7452   -2.2864   21.6339
  QMMM:    23     4669      H       12.0395   -2.5730   23.2135
  QMMM:    24     4670      H       14.2531   -1.4762   23.4427
  QMMM:    25     4671      H       13.7776   -0.1673   22.3804
  QMMM:    26     4672      H       13.2987   -0.4719   25.2731
  QMMM:    27     4673      H       13.1601    0.9696   24.2798
  QMMM:    28     4674      H       10.9504    0.5719   25.2073
  QMMM:    29     4675      H       10.9751   -1.1388   24.8240
  QMMM:    30     4676      H        6.6473   -0.0065   22.4695
  QMMM:    31     4677      H        4.9625    1.7807   21.5200
  QMMM:    32     4678      N        3.4881    2.4082   19.3572
  QMMM:    33     4679      H        4.7899    1.4740   17.1653
  QMMM:    34     4680      Cl       8.3122   -0.8154   19.1332
  QMMM:    35     4681      H        3.2514    2.9550   20.1739
  QMMM:    36     4682      H        3.1663    2.7956   18.4811

--------------------------------------------------------------------------------
  3.1 QM CALCULATION INFO
--------------------------------------------------------------------------------

QMMM: SINGLET STATE CALCULATION
QMMM: RHF CALCULATION, NO. OF DOUBLY OCCUPIED LEVELS = 49

--------------------------------------------------------------------------------
   4.  RESULTS
 NSTEP =        0   TIME(PS) =       0.000  TEMP(K) =     0.00  PRESS =     0.0
 Etot   =    -12037.2982  EKtot   =         0.0000  EPtot      =    -12037.2982
 BOND   =       144.5775  ANGLE   =       553.0644  DIHED      =      1189.6562
 1-4 NB =       947.5523  1-4 EEL =     12133.3194  VDWAALS    =     -2639.1611
 EELEC  =    -21551.7475  EGB     =     -2946.1212  RESTRAINT  =         0.0000
 RM1ESCF=       -80.7438
 CMAP   =       212.3054
 ------------------------------------------------------------------------------

      A V E R A G E S   O V E R   10000 S T E P S

 NSTEP =    10000   TIME(PS) =      20.000  TEMP(K) =   284.62  PRESS =     0.0
 Etot   =     -5260.1785  EKtot   =      3317.2153  EPtot      =     -8577.3938
 BOND   =       881.7847  ANGLE   =      2277.2067  DIHED      =      1659.5945
 1-4 NB =      1044.6061  1-4 EEL =     12018.3442  VDWAALS    =     -2381.2381
 EELEC  =    -21025.7530  EGB     =     -3233.4786  RESTRAINT  =         0.0000
 RM1ESCF=       -41.1002
 CMAP   =       222.6399
 ------------------------------------------------------------------------------

      R M S  F L U C T U A T I O N S

 NSTEP =    10000   TIME(PS) =      20.000  TEMP(K) =    44.60  PRESS =     0.0
 Etot   =      1069.2135  EKtot   =       519.8514  EPtot      =       551.3374
 BOND   =       118.2993  ANGLE   =       273.8014  DIHED      =        79.5449
 1-4 NB =        19.4938  1-4 EEL =        42.4964  VDWAALS    =        51.8225
 EELEC  =       123.4627  EGB     =        95.5236  RESTRAINT  =         0.0000
 RM1ESCF=         9.7665
 CMAP   =         8.0418
 ------------------------------------------------------------------------------
