-------------------------------------------------------
          Amber 18 SANDER                              2018
          -------------------------------------------------------

  [-O]verwriting output

File Assignments:

 Here is the input file:

MD with GB7
 &cntrl
  nstlim = 10000, dt = 0.002,
  ntwr = 5000, ntwx = 500,
  ntc = 2, ntf = 2,
  ntt = 3, temp0 = 300, gamma_ln = 1.0,
  ntb = 0, igb = 7, cut = 9999.0,
  ifqnt = 1,
 /

 &qmmm
  qmmask = ':305', qmcharge = 0,
  qm_theory = 'RM1', qmcut = 20.0,
 /

--------------------------------------------------------------------------------
   1.  RESOURCE   USE:
--------------------------------------------------------------------------------

 NATOM  =    4684 NTYPES =      26 NBONH =    2316 MBONA  =    2422
 NTHETH =    5238 MTHETA =    3293 NPHIH =   10796 MPHIA  =   10515
 NHPARM =       0 NPARM  =       0 NNB   =   25800 NRES   =     305
 NBONA  =    2422 NTHETA =    3293 NPHIA =   10515 NUMBND =      92
 NUMANG =     209 NPTRA  =     223 NATYP =      49 NPHB   =       0
 IFBOX  =       0 NMXRS  =      38 IFCAP =       0 NEXTRA =       0
 NCOPY  =       0

 Implicit solvent radii are ArgH and AspGluO modified Bondi2 radii (mbondi3)
 Replacing prmtop screening parameters with GBn (igb=7) values

LOADING THE QUANTUM ATOMS AS GROUPS
     Mask :305; matches    38 atoms

--------------------------------------------------------------------------------
   2.  CONTROL  DATA  FOR  THE  RUN
--------------------------------------------------------------------------------

default_name

General flags:
     imin    =       0, nmropt  =       0

Nature and format of input:
     ntx     =       1, irest   =       0, ntrx    =       1

Nature and format of output:
     ntxo    =       2, ntpr    =      50, ntrx    =       1, ntwr    =    5000
     iwrap   =       0, ntwx    =     500, ntwv    =       0, ntwe    =       0
     ioutfm  =       1, ntwprt  =       0, idecomp =       0, rbornstat=      0

Potential function:
     ntf     =       2, ntb     =       0, igb     =       7, nsnb    =      25
     ipol    =       0, gbsa    =       0, iesp    =       0
     dielc   =   1.00000, cut     =9999.00000, intdiel =   1.00000
     saltcon =   0.00000, offset  =   0.09000, gbalpha=    1.09511
     gbbeta  =   1.90793, gbgamma =   2.50798, surften =   0.00500
     rdt     =   0.00000, rgbmax  =  25.00000  extdiel =  78.50000
     alpb  =        0

Frozen or restrained atoms:
     ibelly  =       0, ntr     =       0

Molecular dynamics:
     nstlim  =     10000, nscm    =      1000, nrespa  =         1
     t       =   0.00000, dt      =   0.00200, vlimit  =  20.00000

Langevin dynamics temperature regulation:
     ig      =   71277
     temp0   = 300.00000, tempi   =   0.00000, gamma_ln=   1.00000

SHAKE:
     ntc     =       2, jfastw  =       0
     tol     =   0.00001

QMMM options:
             ifqnt = True       nquant =       38
              qmgb =        2  qmcharge =        0   adjust_q =        2
              spin =        1     qmcut =  20.0000    qmshake =        1
          qmmm_int =        1
     lnk_atomic_no =        1   lnk_dis =   1.0900 lnk_method =        1
          qm_theory =     RM1 verbosity =        0
            qmqmdx = Analytical
      tight_p_conv = False (converge density to 0.05xSqrt[SCFCRT])
           scfconv = 0.100E-07  itrmax =     1000
      printcharges = False      printdipole = False      peptide_corr = False
    qmmmrij_incore = True
  qmqm_erep_incore = True
       pseudo_diag = True pseudo_diag_criteria =   0.0500
      diag_routine =        0
          qm_ewald =        0 qm_pme = False

--------------------------------------------------------------------------------
   3.  ATOMIC COORDINATES AND VELOCITIES
--------------------------------------------------------------------------------

default_name
 begin time read from input coords =     0.000 ps

 Number of triangulated 3-point waters found:        0
QMMM: ADJUSTING CHARGES
QMMM: ----------------------------------------------------------------------
QMMM: adjust_q = 2
QMMM: Uniformly adjusting the charge of MM atoms to conserve total charge.
QMMM:                             qm_charge =    0
QMMM: QM atom RESP charge sum (inc MM link) =   -0.001
QMMM: Adjusting each MM atom resp charge by =   -0.000
QMMM:          Sum of MM + QM region is now =   -3.001
QMMM: ----------------------------------------------------------------------

QMMM: Link Atom Information
QMMM: ------------------------------------------------------------------------
QMMM: nlink =     0
QMMM: ------------------------------------------------------------------------

  QMMM: QM Region Cartesian Coordinates (*=link atom)
  QMMM: QM_NO.   MM_NO.  ATOM         X         Y         Z
  QMMM:     1     4647      O        9.1031    1.3168   20.9487
  QMMM:     2     4648      C        8.4963    0.7070   21.8296
  QMMM:     3     4649      C        9.0786    0.3207   23.1734
  QMMM:     4     4650      C       10.5972    0.1617   23.0641
  QMMM:     5     4651      C       10.9540   -0.9783   22.1061
  QMMM:     6     4652      C       12.2184   -1.7342   22.5103
  QMMM:     7     4653      C       13.2520   -0.7904   23.1023
  QMMM:     8     4654      C       12.7125   -0.0866   24.3460
  QMMM:     9     4655      C       11.1888   -0.1213   24.4400
  QMMM:    10     4656      N        7.1432    0.3862   21.6503
  QMMM:    11     4657      C        6.4635    0.6958   20.4613
  QMMM:    12     4658      C        5.2867    1.4714   20.4585
  QMMM:    13     4659      C        4.6966    1.8079   19.2091
  QMMM:    14     4660      C        5.2568    1.3620   17.9953
  QMMM:    15     4661      N        6.3418    0.5924   17.9964
  QMMM:    16     4662      C        6.8888    0.2666   19.2117
  QMMM:    17     4663      H        8.6231   -0.6035   23.5919
  QMMM:    18     4664      H        8.8015    1.1116   23.9075
  QMMM:    19     4665      H       11.0170    1.1240   22.6738
  QMMM:    20     4666      H       10.1204   -1.7056   22.0119
  QMMM:    21     4667      H       11.0584   -0.5647   21.0863
  QMMM:    22     4668      H       12.6350   -2.2609   21.6264
  QMMM:    23     4669      H       11.9876   -2.5495   23.2310
  QMMM:    24     4670      H       14.1817   -1.3455   23.3496
  QMMM:    25     4671      H       13.5759   -0.0613   22.3337
  QMMM:    26     4672      H       13.1437   -0.5644   25.2472
  QMMM:    27     4673      H       13.0738    0.9629   24.3627
  QMMM:    28     4674      H       10.8317    0.6162   25.1905
  QMMM:    29     4675      H       10.8282   -1.1065   24.8078
  QMMM:    30     4676      H        6.5652    0.0597   22.4313
  QMMM:    31     4677      C        4.4853    2.0658   21.4743
  QMMM:    32     4678      N        3.5673    2.5691   19.4506
  QMMM:    33     4679      H        4.8224    1.6520   17.0363
  QMMM:    34     4680      Cl       8.2370   -0.7712   19.0608
  QMMM:    35     4681      C        3.4558    2.7404   20.8349
  QMMM:    36     4682      H        2.6295    3.3169   21.2580
  QMMM:    37     4683      H        4.6655    1.9783   22.5436
  QMMM:    38     4684      H        3.0627    3.0815   18.7298

--------------------------------------------------------------------------------
  3.1 QM CALCULATION INFO
--------------------------------------------------------------------------------

QMMM: SINGLET STATE CALCULATION
QMMM: RHF CALCULATION, NO. OF DOUBLY OCCUPIED LEVELS = 53

--------------------------------------------------------------------------------
   4.  RESULTS
 NSTEP =        0   TIME(PS) =       0.000  TEMP(K) =     0.00  PRESS =     0.0
 Etot   =    -12028.6119  EKtot   =         0.0000  EPtot      =    -12028.6119
 BOND   =       145.3793  ANGLE   =       555.5653  DIHED      =      1187.3664
 1-4 NB =       947.2563  1-4 EEL =     12128.9610  VDWAALS    =     -2642.3277
 EELEC  =    -21550.0125  EGB     =     -2956.1458  RESTRAINT  =         0.0000
 RM1ESCF=       -54.4896
 CMAP   =       209.8355
 ------------------------------------------------------------------------------

      A V E R A G E S   O V E R   10000 S T E P S

 NSTEP =    10000   TIME(PS) =      20.000  TEMP(K) =   285.12  PRESS =     0.0
 Etot   =     -5226.4960  EKtot   =      3324.7497  EPtot      =     -8551.2457
 BOND   =       882.2066  ANGLE   =      2282.5827  DIHED      =      1660.5554
 1-4 NB =      1044.9683  1-4 EEL =     12023.0682  VDWAALS    =     -2382.8955
 EELEC  =    -20973.6918  EGB     =     -3298.9248  RESTRAINT  =         0.0000
 RM1ESCF=       -14.5657
 CMAP   =       225.4509
 ------------------------------------------------------------------------------

      R M S  F L U C T U A T I O N S

 NSTEP =    10000   TIME(PS) =      20.000  TEMP(K) =    44.71  PRESS =     0.0
 Etot   =      1073.7881  EKtot   =       521.3925  EPtot      =       554.2446
 BOND   =       119.1952  ANGLE   =       274.6662  DIHED      =        80.6767
 1-4 NB =        20.2144  1-4 EEL =        42.7027  VDWAALS    =        50.5973
 EELEC  =       122.9019  EGB     =        89.8163  RESTRAINT  =         0.0000
 RM1ESCF=        10.5457
 CMAP   =         9.5409
 ------------------------------------------------------------------------------
