-------------------------------------------------------
          Amber 18 SANDER                              2018
          -------------------------------------------------------

  [-O]verwriting output

File Assignments:

 Here is the input file:

MD with GB7
 &cntrl
  nstlim = 10000, dt = 0.002,
  ntwr = 5000, ntwx = 500,
  ntc = 2, ntf = 2,
  ntt = 3, temp0 = 300, gamma_ln = 1.0,
  ntb = 0, igb = 7, cut = 9999.0,
  ifqnt = 1,
 /

 &qmmm
  qmmask = ':305', qmcharge = 1,
  qm_theory = 'RM1', qmcut = 20.0,
 /

--------------------------------------------------------------------------------
   1.  RESOURCE   USE:
--------------------------------------------------------------------------------

 NATOM  =    4683 NTYPES =      29 NBONH =    2315 MBONA  =    2422
 NTHETH =    5235 MTHETA =    3294 NPHIH =   10783 MPHIA  =   10508
 NHPARM =       0 NPARM  =       0 NNB   =   25790 NRES   =     305
 NBONA  =    2422 NTHETA =    3294 NPHIA =   10508 NUMBND =      95
 NUMANG =     217 NPTRA  =     216 NATYP =      52 NPHB   =       0
 IFBOX  =       0 NMXRS  =      37 IFCAP =       0 NEXTRA =       0
 NCOPY  =       0

 Implicit solvent radii are ArgH and AspGluO modified Bondi2 radii (mbondi3)
 Replacing prmtop screening parameters with GBn (igb=7) values

LOADING THE QUANTUM ATOMS AS GROUPS
     Mask :305; matches    37 atoms

--------------------------------------------------------------------------------
   2.  CONTROL  DATA  FOR  THE  RUN
--------------------------------------------------------------------------------

default_name

General flags:
     imin    =       0, nmropt  =       0

Nature and format of input:
     ntx     =       1, irest   =       0, ntrx    =       1

Nature and format of output:
     ntxo    =       2, ntpr    =      50, ntrx    =       1, ntwr    =    5000
     iwrap   =       0, ntwx    =     500, ntwv    =       0, ntwe    =       0
     ioutfm  =       1, ntwprt  =       0, idecomp =       0, rbornstat=      0

Potential function:
     ntf     =       2, ntb     =       0, igb     =       7, nsnb    =      25
     ipol    =       0, gbsa    =       0, iesp    =       0
     dielc   =   1.00000, cut     =9999.00000, intdiel =   1.00000
     saltcon =   0.00000, offset  =   0.09000, gbalpha=    1.09511
     gbbeta  =   1.90793, gbgamma =   2.50798, surften =   0.00500
     rdt     =   0.00000, rgbmax  =  25.00000  extdiel =  78.50000
     alpb  =        0

Frozen or restrained atoms:
     ibelly  =       0, ntr     =       0

Molecular dynamics:
     nstlim  =     10000, nscm    =      1000, nrespa  =         1
     t       =   0.00000, dt      =   0.00200, vlimit  =  20.00000

Langevin dynamics temperature regulation:
     ig      =   71277
     temp0   = 300.00000, tempi   =   0.00000, gamma_ln=   1.00000

SHAKE:
     ntc     =       2, jfastw  =       0
     tol     =   0.00001

QMMM options:
             ifqnt = True       nquant =       37
              qmgb =        2  qmcharge =        1   adjust_q =        2
              spin =        1     qmcut =  20.0000    qmshake =        1
          qmmm_int =        1
     lnk_atomic_no =        1   lnk_dis =   1.0900 lnk_method =        1
          qm_theory =     RM1 verbosity =        0
            qmqmdx = Analytical
      tight_p_conv = False (converge density to 0.05xSqrt[SCFCRT])
           scfconv = 0.100E-07  itrmax =     1000
      printcharges = False      printdipole = False      peptide_corr = False
    qmmmrij_incore = True
  qmqm_erep_incore = True
       pseudo_diag = True pseudo_diag_criteria =   0.0500
      diag_routine =        0
          qm_ewald =        0 qm_pme = False

--------------------------------------------------------------------------------
   3.  ATOMIC COORDINATES AND VELOCITIES
--------------------------------------------------------------------------------

default_name
 begin time read from input coords =     0.000 ps

 Number of triangulated 3-point waters found:        0
QMMM: ADJUSTING CHARGES
QMMM: ----------------------------------------------------------------------
QMMM: adjust_q = 2
QMMM: Uniformly adjusting the charge of MM atoms to conserve total charge.
QMMM:                             qm_charge =    1
QMMM: QM atom RESP charge sum (inc MM link) =    1.003
QMMM: Adjusting each MM atom resp charge by =    0.000
QMMM:          Sum of MM + QM region is now =   -1.997
QMMM: ----------------------------------------------------------------------

QMMM: Link Atom Information
QMMM: ------------------------------------------------------------------------
QMMM: nlink =     0
QMMM: ------------------------------------------------------------------------

  QMMM: QM Region Cartesian Coordinates (*=link atom)
  QMMM: QM_NO.   MM_NO.  ATOM         X         Y         Z
  QMMM:     1     4647      C       13.6912   -1.5013   23.4289
  QMMM:     2     4648      N       12.2554   -1.0526   23.6272
  QMMM:     3     4649      O        8.9337    1.3577   21.1156
  QMMM:     4     4650      C       11.3062   -1.9813   22.8639
  QMMM:     5     4651      N        9.7261   -0.1495   22.6241
  QMMM:     6     4652      C        9.8619   -1.5193   23.1336
  QMMM:     7     4653      N        6.2023    0.1827   17.8912
  QMMM:     8     4654      C       10.6038    0.8116   23.3021
  QMMM:     9     4655      N        4.2367    1.4883   18.6216
  QMMM:    10     4656      C       12.0794    0.3871   23.1401
  QMMM:    11     4657      C        8.8903    0.2129   21.5712
  QMMM:    12     4658      C        7.9549   -0.8447   21.0272
  QMMM:    13     4659      C        7.0930   -0.2927   19.9769
  QMMM:    14     4660      C        7.2362   -0.4534   18.6069
  QMMM:    15     4661      C        5.3852    0.7744   18.8482
  QMMM:    16     4662      C        3.6355    1.8956   19.7647
  QMMM:    17     4663      N        4.0608    1.6695   21.0593
  QMMM:    18     4664      C        5.1868    0.9715   21.2474
  QMMM:    19     4665      C        5.9185    0.4963   20.1475
  QMMM:    20     4666      H       12.0090   -1.1104   24.6577
  QMMM:    21     4667      H       11.4641   -3.0443   23.1878
  QMMM:    22     4668      H       11.5443   -1.9753   21.7706
  QMMM:    23     4669      H        9.1677   -2.2620   22.6740
  QMMM:    24     4670      H        9.5948   -1.5522   24.2237
  QMMM:    25     4671      H       10.4906    1.8524   22.9122
  QMMM:    26     4672      H       10.3082    0.8887   24.3810
  QMMM:    27     4673      H       12.7516    1.0877   23.7013
  QMMM:    28     4674      H       12.4119    0.4683   22.0784
  QMMM:    29     4675      H        8.5552   -1.6905   20.6183
  QMMM:    30     4676      H        7.3072   -1.2578   21.8380
  QMMM:    31     4677      F        8.1571   -1.1220   17.9447
  QMMM:    32     4678      H        2.7016    2.4844   19.6493
  QMMM:    33     4679      H        5.5022    0.7887   22.2965
  QMMM:    34     4680      H        6.1186    0.2326   16.8789
  QMMM:    35     4681      H       13.8553   -2.5255   23.8337
  QMMM:    36     4682      H       13.9721   -1.5152   22.3581
  QMMM:    37     4683      H       14.3999   -0.8327   23.9581

--------------------------------------------------------------------------------
  3.1 QM CALCULATION INFO
--------------------------------------------------------------------------------

QMMM: SINGLET STATE CALCULATION
QMMM: RHF CALCULATION, NO. OF DOUBLY OCCUPIED LEVELS = 53

--------------------------------------------------------------------------------
   4.  RESULTS
 NSTEP =        0   TIME(PS) =       0.000  TEMP(K) =     0.00  PRESS =     0.0
 Etot   =    -11765.4424  EKtot   =         0.0000  EPtot      =    -11765.4424
 BOND   =       139.2844  ANGLE   =       552.2238  DIHED      =      1208.3456
 1-4 NB =       962.9826  1-4 EEL =     12150.3816  VDWAALS    =     -2643.4835
 EELEC  =    -21576.4158  EGB     =     -2887.0436  RESTRAINT  =         0.0000
 RM1ESCF=       101.5387
 CMAP   =       226.7437
 ------------------------------------------------------------------------------

      A V E R A G E S   O V E R   10000 S T E P S

 NSTEP =    10000   TIME(PS) =      20.000  TEMP(K) =   286.44  PRESS =     0.0
 Etot   =     -5084.9318  EKtot   =      3339.5241  EPtot      =     -8424.4559
 BOND   =       889.4892  ANGLE   =      2288.5187  DIHED      =      1661.7936
 1-4 NB =      1044.0177  1-4 EEL =     11999.8388  VDWAALS    =     -2355.6135
 EELEC  =    -20891.4366  EGB     =     -3344.0086  RESTRAINT  =         0.0000
 RM1ESCF=        61.0743
 CMAP   =       221.8705
 ------------------------------------------------------------------------------

      R M S  F L U C T U A T I O N S

 NSTEP =    10000   TIME(PS) =      20.000  TEMP(K) =    44.36  PRESS =     0.0
 Etot   =      1061.5267  EKtot   =       517.2031  EPtot      =       546.7577
 BOND   =       119.5790  ANGLE   =       275.3268  DIHED      =        78.3090
 1-4 NB =        19.9775  1-4 EEL =        40.4233  VDWAALS    =        60.0026
 EELEC  =       147.7152  EGB     =       120.2012  RESTRAINT  =         0.0000
 RM1ESCF=        27.0104
 CMAP   =         8.3214
 ------------------------------------------------------------------------------
