-------------------------------------------------------
          Amber 18 SANDER                              2018
          -------------------------------------------------------

  [-O]verwriting output

File Assignments:

 Here is the input file:

MD with GB7
 &cntrl
  nstlim = 10000, dt = 0.002,
  ntwr = 5000, ntwx = 500,
  ntc = 2, ntf = 2,
  ntt = 3, temp0 = 300, gamma_ln = 1.0,
  ntb = 0, igb = 7, cut = 9999.0,
  ifqnt = 1,
 /

 &qmmm
  qmmask = ':305', qmcharge = 1,
  qm_theory = 'RM1', qmcut = 20.0,
 /

--------------------------------------------------------------------------------
   1.  RESOURCE   USE:
--------------------------------------------------------------------------------

 NATOM  =    4684 NTYPES =      29 NBONH =    2316 MBONA  =    2422
 NTHETH =    5237 MTHETA =    3294 NPHIH =   10788 MPHIA  =   10508
 NHPARM =       0 NPARM  =       0 NNB   =   25796 NRES   =     305
 NBONA  =    2422 NTHETA =    3294 NPHIA =   10508 NUMBND =      95
 NUMANG =     216 NPTRA  =     216 NATYP =      52 NPHB   =       0
 IFBOX  =       0 NMXRS  =      38 IFCAP =       0 NEXTRA =       0
 NCOPY  =       0

 Implicit solvent radii are ArgH and AspGluO modified Bondi2 radii (mbondi3)
 Replacing prmtop screening parameters with GBn (igb=7) values

LOADING THE QUANTUM ATOMS AS GROUPS
     Mask :305; matches    38 atoms

--------------------------------------------------------------------------------
   2.  CONTROL  DATA  FOR  THE  RUN
--------------------------------------------------------------------------------

default_name

General flags:
     imin    =       0, nmropt  =       0

Nature and format of input:
     ntx     =       1, irest   =       0, ntrx    =       1

Nature and format of output:
     ntxo    =       2, ntpr    =      50, ntrx    =       1, ntwr    =    5000
     iwrap   =       0, ntwx    =     500, ntwv    =       0, ntwe    =       0
     ioutfm  =       1, ntwprt  =       0, idecomp =       0, rbornstat=      0

Potential function:
     ntf     =       2, ntb     =       0, igb     =       7, nsnb    =      25
     ipol    =       0, gbsa    =       0, iesp    =       0
     dielc   =   1.00000, cut     =9999.00000, intdiel =   1.00000
     saltcon =   0.00000, offset  =   0.09000, gbalpha=    1.09511
     gbbeta  =   1.90793, gbgamma =   2.50798, surften =   0.00500
     rdt     =   0.00000, rgbmax  =  25.00000  extdiel =  78.50000
     alpb  =        0

Frozen or restrained atoms:
     ibelly  =       0, ntr     =       0

Molecular dynamics:
     nstlim  =     10000, nscm    =      1000, nrespa  =         1
     t       =   0.00000, dt      =   0.00200, vlimit  =  20.00000

Langevin dynamics temperature regulation:
     ig      =   71277
     temp0   = 300.00000, tempi   =   0.00000, gamma_ln=   1.00000

SHAKE:
     ntc     =       2, jfastw  =       0
     tol     =   0.00001

QMMM options:
             ifqnt = True       nquant =       38
              qmgb =        2  qmcharge =        1   adjust_q =        2
              spin =        1     qmcut =  20.0000    qmshake =        1
          qmmm_int =        1
     lnk_atomic_no =        1   lnk_dis =   1.0900 lnk_method =        1
          qm_theory =     RM1 verbosity =        0
            qmqmdx = Analytical
      tight_p_conv = False (converge density to 0.05xSqrt[SCFCRT])
           scfconv = 0.100E-07  itrmax =     1000
      printcharges = False      printdipole = False      peptide_corr = False
    qmmmrij_incore = True
  qmqm_erep_incore = True
       pseudo_diag = True pseudo_diag_criteria =   0.0500
      diag_routine =        0
          qm_ewald =        0 qm_pme = False

--------------------------------------------------------------------------------
   3.  ATOMIC COORDINATES AND VELOCITIES
--------------------------------------------------------------------------------

default_name
 begin time read from input coords =     0.000 ps

 Number of triangulated 3-point waters found:        0
QMMM: ADJUSTING CHARGES
QMMM: ----------------------------------------------------------------------
QMMM: adjust_q = 2
QMMM: Uniformly adjusting the charge of MM atoms to conserve total charge.
QMMM:                             qm_charge =    1
QMMM: QM atom RESP charge sum (inc MM link) =    0.998
QMMM: Adjusting each MM atom resp charge by =   -0.000
QMMM:          Sum of MM + QM region is now =   -2.002
QMMM: ----------------------------------------------------------------------

QMMM: Link Atom Information
QMMM: ------------------------------------------------------------------------
QMMM: nlink =     0
QMMM: ------------------------------------------------------------------------

  QMMM: QM Region Cartesian Coordinates (*=link atom)
  QMMM: QM_NO.   MM_NO.  ATOM         X         Y         Z
  QMMM:     1     4647      C       13.6893   -1.4954   23.4322
  QMMM:     2     4648      N       12.2558   -1.0510   23.6290
  QMMM:     3     4649      O        8.9353    1.3522   21.1118
  QMMM:     4     4650      C       11.3127   -1.9791   22.8632
  QMMM:     5     4651      N        9.7203   -0.1523   22.6251
  QMMM:     6     4652      C        9.8625   -1.5265   23.1330
  QMMM:     7     4653      N        6.1943    0.1492   17.8882
  QMMM:     8     4654      C       10.5963    0.8096   23.3045
  QMMM:     9     4655      N        4.2374    1.4601   18.6152
  QMMM:    10     4656      C       12.0736    0.3887   23.1427
  QMMM:    11     4657      C        8.8959    0.2064   21.5675
  QMMM:    12     4658      C        7.9728   -0.8599   21.0128
  QMMM:    13     4659      C        7.1044   -0.3150   19.9595
  QMMM:    14     4660      C        7.2399   -0.4748   18.5919
  QMMM:    15     4661      C        5.3809    0.7475   18.8558
  QMMM:    16     4662      C        3.6323    1.8958   19.7340
  QMMM:    17     4663      C        4.0816    1.6618   21.0565
  QMMM:    18     4664      C        5.2384    0.9402   21.2727
  QMMM:    19     4665      C        5.9197    0.4670   20.1486
  QMMM:    20     4666      H       12.0063   -1.1109   24.6567
  QMMM:    21     4667      H       11.4681   -3.0447   23.1858
  QMMM:    22     4668      H       11.5460   -1.9746   21.7682
  QMMM:    23     4669      H        9.1682   -2.2672   22.6708
  QMMM:    24     4670      H        9.5924   -1.5583   24.2226
  QMMM:    25     4671      H       10.4816    1.8496   22.9157
  QMMM:    26     4672      H       10.3017    0.8841   24.3824
  QMMM:    27     4673      H       12.7451    1.0893   23.7049
  QMMM:    28     4674      H       12.4063    0.4706   22.0804
  QMMM:    29     4675      H        8.5895   -1.6933   20.5940
  QMMM:    30     4676      H        7.3270   -1.2902   21.8193
  QMMM:    31     4677      F        8.1629   -1.1327   17.9271
  QMMM:    32     4678      H        2.7134    2.4806   19.5500
  QMMM:    33     4679      H        3.4982    2.0638   21.8938
  QMMM:    34     4680      H        5.6147    0.7322   22.2869
  QMMM:    35     4681      H        6.1117    0.2122   16.8782
  QMMM:    36     4682      H       13.8571   -2.5213   23.8369
  QMMM:    37     4683      H       13.9722   -1.5104   22.3626
  QMMM:    38     4684      H       14.3965   -0.8267   23.9620

--------------------------------------------------------------------------------
  3.1 QM CALCULATION INFO
--------------------------------------------------------------------------------

QMMM: SINGLET STATE CALCULATION
QMMM: RHF CALCULATION, NO. OF DOUBLY OCCUPIED LEVELS = 53

--------------------------------------------------------------------------------
   4.  RESULTS
 NSTEP =        0   TIME(PS) =       0.000  TEMP(K) =     0.00  PRESS =     0.0
 Etot   =    -11775.7119  EKtot   =         0.0000  EPtot      =    -11775.7119
 BOND   =       139.5741  ANGLE   =       553.3547  DIHED      =      1209.5235
 1-4 NB =       962.6954  1-4 EEL =     12150.9298  VDWAALS    =     -2643.8750
 EELEC  =    -21575.1832  EGB     =     -2886.7813  RESTRAINT  =         0.0000
 RM1ESCF=        86.3412
 CMAP   =       227.7089
 ------------------------------------------------------------------------------

      A V E R A G E S   O V E R   10000 S T E P S

 NSTEP =    10000   TIME(PS) =      20.000  TEMP(K) =   284.91  PRESS =     0.0
 Etot   =     -5148.8875  EKtot   =      3322.2874  EPtot      =     -8471.1749
 BOND   =       882.6004  ANGLE   =      2280.3116  DIHED      =      1655.9405
 1-4 NB =      1043.5221  1-4 EEL =     11990.7716  VDWAALS    =     -2370.8008
 EELEC  =    -20918.0622  EGB     =     -3318.4584  RESTRAINT  =         0.0000
 RM1ESCF=        57.0407
 CMAP   =       225.9595
 ------------------------------------------------------------------------------

      R M S  F L U C T U A T I O N S

 NSTEP =    10000   TIME(PS) =      20.000  TEMP(K) =    43.88  PRESS =     0.0
 Etot   =      1040.4123  EKtot   =       511.6715  EPtot      =       531.0045
 BOND   =       118.2604  ANGLE   =       272.2085  DIHED      =        75.9703
 1-4 NB =        19.4482  1-4 EEL =        43.8564  VDWAALS    =        52.1328
 EELEC  =       124.7285  EGB     =        94.9956  RESTRAINT  =         0.0000
 RM1ESCF=        29.1694
 CMAP   =        10.0249
 ------------------------------------------------------------------------------
