-------------------------------------------------------
          Amber 18 SANDER                              2018
          -------------------------------------------------------

  [-O]verwriting output

File Assignments:

 Here is the input file:

MD with GB7
 &cntrl
  nstlim = 10000, dt = 0.002,
  ntwr = 5000, ntwx = 500,
  ntc = 2, ntf = 2,
  ntt = 3, temp0 = 300, gamma_ln = 1.0,
  ntb = 0, igb = 7, cut = 9999.0,
  ifqnt = 1,
 /

 &qmmm
  qmmask = ':305', qmcharge = 1,
  qm_theory = 'RM1', qmcut = 20.0,
 /

--------------------------------------------------------------------------------
   1.  RESOURCE   USE:
--------------------------------------------------------------------------------

 NATOM  =    4683 NTYPES =      28 NBONH =    2315 MBONA  =    2422
 NTHETH =    5235 MTHETA =    3294 NPHIH =   10783 MPHIA  =   10508
 NHPARM =       0 NPARM  =       0 NNB   =   25789 NRES   =     305
 NBONA  =    2422 NTHETA =    3294 NPHIA =   10508 NUMBND =      94
 NUMANG =     215 NPTRA  =     217 NATYP =      51 NPHB   =       0
 IFBOX  =       0 NMXRS  =      37 IFCAP =       0 NEXTRA =       0
 NCOPY  =       0

 Implicit solvent radii are ArgH and AspGluO modified Bondi2 radii (mbondi3)
 Replacing prmtop screening parameters with GBn (igb=7) values

LOADING THE QUANTUM ATOMS AS GROUPS
     Mask :305; matches    37 atoms

--------------------------------------------------------------------------------
   2.  CONTROL  DATA  FOR  THE  RUN
--------------------------------------------------------------------------------

default_name

General flags:
     imin    =       0, nmropt  =       0

Nature and format of input:
     ntx     =       1, irest   =       0, ntrx    =       1

Nature and format of output:
     ntxo    =       2, ntpr    =      50, ntrx    =       1, ntwr    =    5000
     iwrap   =       0, ntwx    =     500, ntwv    =       0, ntwe    =       0
     ioutfm  =       1, ntwprt  =       0, idecomp =       0, rbornstat=      0

Potential function:
     ntf     =       2, ntb     =       0, igb     =       7, nsnb    =      25
     ipol    =       0, gbsa    =       0, iesp    =       0
     dielc   =   1.00000, cut     =9999.00000, intdiel =   1.00000
     saltcon =   0.00000, offset  =   0.09000, gbalpha=    1.09511
     gbbeta  =   1.90793, gbgamma =   2.50798, surften =   0.00500
     rdt     =   0.00000, rgbmax  =  25.00000  extdiel =  78.50000
     alpb  =        0

Frozen or restrained atoms:
     ibelly  =       0, ntr     =       0

Molecular dynamics:
     nstlim  =     10000, nscm    =      1000, nrespa  =         1
     t       =   0.00000, dt      =   0.00200, vlimit  =  20.00000

Langevin dynamics temperature regulation:
     ig      =   71277
     temp0   = 300.00000, tempi   =   0.00000, gamma_ln=   1.00000

SHAKE:
     ntc     =       2, jfastw  =       0
     tol     =   0.00001

QMMM options:
             ifqnt = True       nquant =       37
              qmgb =        2  qmcharge =        1   adjust_q =        2
              spin =        1     qmcut =  20.0000    qmshake =        1
          qmmm_int =        1
     lnk_atomic_no =        1   lnk_dis =   1.0900 lnk_method =        1
          qm_theory =     RM1 verbosity =        0
            qmqmdx = Analytical
      tight_p_conv = False (converge density to 0.05xSqrt[SCFCRT])
           scfconv = 0.100E-07  itrmax =     1000
      printcharges = False      printdipole = False      peptide_corr = False
    qmmmrij_incore = True
  qmqm_erep_incore = True
       pseudo_diag = True pseudo_diag_criteria =   0.0500
      diag_routine =        0
          qm_ewald =        0 qm_pme = False

--------------------------------------------------------------------------------
   3.  ATOMIC COORDINATES AND VELOCITIES
--------------------------------------------------------------------------------

default_name
 begin time read from input coords =     0.000 ps

 Number of triangulated 3-point waters found:        0
QMMM: ADJUSTING CHARGES
QMMM: ----------------------------------------------------------------------
QMMM: adjust_q = 2
QMMM: Uniformly adjusting the charge of MM atoms to conserve total charge.
QMMM:                             qm_charge =    1
QMMM: QM atom RESP charge sum (inc MM link) =    1.001
QMMM: Adjusting each MM atom resp charge by =    0.000
QMMM:          Sum of MM + QM region is now =   -1.999
QMMM: ----------------------------------------------------------------------

QMMM: Link Atom Information
QMMM: ------------------------------------------------------------------------
QMMM: nlink =     0
QMMM: ------------------------------------------------------------------------

  QMMM: QM Region Cartesian Coordinates (*=link atom)
  QMMM: QM_NO.   MM_NO.  ATOM         X         Y         Z
  QMMM:     1     4647      C       13.6759   -1.5041   23.4231
  QMMM:     2     4648      N       12.2398   -1.0514   23.6183
  QMMM:     3     4649      O        8.8996    1.3649   21.1091
  QMMM:     4     4650      C       11.2936   -1.9825   22.8556
  QMMM:     5     4651      N        9.7171   -0.1469   22.5974
  QMMM:     6     4652      C        9.8466   -1.5157   23.1183
  QMMM:     7     4653      N        6.1827    0.1732   17.8775
  QMMM:     8     4654      C       10.5909    0.8132   23.2844
  QMMM:     9     4655      N        4.2309    1.5162   18.6150
  QMMM:    10     4656      C       12.0684    0.3864   23.1299
  QMMM:    11     4657      C        8.8632    0.2164   21.5659
  QMMM:    12     4658      C        7.9302   -0.8426   21.0265
  QMMM:    13     4659      C        7.0686   -0.2957   19.9679
  QMMM:    14     4660      C        7.2091   -0.4642   18.5976
  QMMM:    15     4661      C        5.3721    0.7903   18.8284
  QMMM:    16     4662      C        3.6514    1.9427   19.7417
  QMMM:    17     4663      C        4.1623    1.6634   21.0538
  QMMM:    18     4664      N        5.2767    0.9509   21.2635
  QMMM:    19     4665      C        5.8969    0.5111   20.1367
  QMMM:    20     4666      H       11.9913   -1.1098   24.6491
  QMMM:    21     4667      H       11.4441   -3.0449   23.1836
  QMMM:    22     4668      H       11.5320   -1.9803   21.7624
  QMMM:    23     4669      H        9.1515   -2.2582   22.6566
  QMMM:    24     4670      H        9.5743   -1.5462   24.2058
  QMMM:    25     4671      H       10.4817    1.8535   22.8908
  QMMM:    26     4672      H       10.2917    0.8940   24.3592
  QMMM:    27     4673      H       12.7361    1.0855   23.6948
  QMMM:    28     4674      H       12.4051    0.4659   22.0708
  QMMM:    29     4675      H        8.5174   -1.6972   20.6277
  QMMM:    30     4676      H        7.2703   -1.2389   21.8452
  QMMM:    31     4677      F        8.1262   -1.1450   17.9494
  QMMM:    32     4678      H        2.7306    2.5394   19.6157
  QMMM:    33     4679      H        6.1062    0.2234   16.8625
  QMMM:    34     4680      H       13.8386   -2.5277   23.8300
  QMMM:    35     4681      H       13.9585   -1.5201   22.3527
  QMMM:    36     4682      H       14.3845   -0.8354   23.9522
  QMMM:    37     4683      H        3.6319    2.0282   21.9596

--------------------------------------------------------------------------------
  3.1 QM CALCULATION INFO
--------------------------------------------------------------------------------

QMMM: SINGLET STATE CALCULATION
QMMM: RHF CALCULATION, NO. OF DOUBLY OCCUPIED LEVELS = 53

--------------------------------------------------------------------------------
   4.  RESULTS
 NSTEP =        0   TIME(PS) =       0.000  TEMP(K) =     0.00  PRESS =     0.0
 Etot   =    -11784.4219  EKtot   =         0.0000  EPtot      =    -11784.4219
 BOND   =       139.9990  ANGLE   =       550.4319  DIHED      =      1206.9711
 1-4 NB =       961.9579  1-4 EEL =     12149.3813  VDWAALS    =     -2642.8454
 EELEC  =    -21576.6852  EGB     =     -2886.5780  RESTRAINT  =         0.0000
 RM1ESCF=        87.2099
 CMAP   =       225.7357
 ------------------------------------------------------------------------------

      A V E R A G E S   O V E R   10000 S T E P S

 NSTEP =    10000   TIME(PS) =      20.000  TEMP(K) =   287.55  PRESS =     0.0
 Etot   =     -5036.7329  EKtot   =      3352.5332  EPtot      =     -8389.2661
 BOND   =       890.1797  ANGLE   =      2297.9644  DIHED      =      1659.3335
 1-4 NB =      1043.8239  1-4 EEL =     12002.6126  VDWAALS    =     -2362.0833
 EELEC  =    -20934.8210  EGB     =     -3315.8654  RESTRAINT  =         0.0000
 RM1ESCF=       108.1520
 CMAP   =       221.4375
 ------------------------------------------------------------------------------

      R M S  F L U C T U A T I O N S

 NSTEP =    10000   TIME(PS) =      20.000  TEMP(K) =    44.72  PRESS =     0.0
 Etot   =      1077.5452  EKtot   =       521.3668  EPtot      =       558.6323
 BOND   =       119.7487  ANGLE   =       278.2170  DIHED      =        77.3365
 1-4 NB =        19.6341  1-4 EEL =        41.3289  VDWAALS    =        56.9043
 EELEC  =       137.1453  EGB     =       108.8491  RESTRAINT  =         0.0000
 RM1ESCF=        36.5159
 CMAP   =         8.3181
 ------------------------------------------------------------------------------
