-------------------------------------------------------
          Amber 18 SANDER                              2018
          -------------------------------------------------------

  [-O]verwriting output

File Assignments:

 Here is the input file:

MD with GB7
 &cntrl
  nstlim = 10000, dt = 0.002,
  ntwr = 5000, ntwx = 500,
  ntc = 2, ntf = 2,
  ntt = 3, temp0 = 300, gamma_ln = 1.0,
  ntb = 0, igb = 7, cut = 9999.0,
  ifqnt = 1,
 /

 &qmmm
  qmmask = ':305', qmcharge = 1,
  qm_theory = 'RM1', qmcut = 20.0,
 /

--------------------------------------------------------------------------------
   1.  RESOURCE   USE:
--------------------------------------------------------------------------------

 NATOM  =    4683 NTYPES =      28 NBONH =    2316 MBONA  =    2421
 NTHETH =    5237 MTHETA =    3292 NPHIH =   10787 MPHIA  =   10504
 NHPARM =       0 NPARM  =       0 NNB   =   25790 NRES   =     305
 NBONA  =    2421 NTHETA =    3292 NPHIA =   10504 NUMBND =      95
 NUMANG =     217 NPTRA  =     216 NATYP =      51 NPHB   =       0
 IFBOX  =       0 NMXRS  =      37 IFCAP =       0 NEXTRA =       0
 NCOPY  =       0

 Implicit solvent radii are ArgH and AspGluO modified Bondi2 radii (mbondi3)
 Replacing prmtop screening parameters with GBn (igb=7) values

LOADING THE QUANTUM ATOMS AS GROUPS
     Mask :305; matches    37 atoms

--------------------------------------------------------------------------------
   2.  CONTROL  DATA  FOR  THE  RUN
--------------------------------------------------------------------------------

default_name

General flags:
     imin    =       0, nmropt  =       0

Nature and format of input:
     ntx     =       1, irest   =       0, ntrx    =       1

Nature and format of output:
     ntxo    =       2, ntpr    =      50, ntrx    =       1, ntwr    =    5000
     iwrap   =       0, ntwx    =     500, ntwv    =       0, ntwe    =       0
     ioutfm  =       1, ntwprt  =       0, idecomp =       0, rbornstat=      0

Potential function:
     ntf     =       2, ntb     =       0, igb     =       7, nsnb    =      25
     ipol    =       0, gbsa    =       0, iesp    =       0
     dielc   =   1.00000, cut     =9999.00000, intdiel =   1.00000
     saltcon =   0.00000, offset  =   0.09000, gbalpha=    1.09511
     gbbeta  =   1.90793, gbgamma =   2.50798, surften =   0.00500
     rdt     =   0.00000, rgbmax  =  25.00000  extdiel =  78.50000
     alpb  =        0

Frozen or restrained atoms:
     ibelly  =       0, ntr     =       0

Molecular dynamics:
     nstlim  =     10000, nscm    =      1000, nrespa  =         1
     t       =   0.00000, dt      =   0.00200, vlimit  =  20.00000

Langevin dynamics temperature regulation:
     ig      =   71277
     temp0   = 300.00000, tempi   =   0.00000, gamma_ln=   1.00000

SHAKE:
     ntc     =       2, jfastw  =       0
     tol     =   0.00001

QMMM options:
             ifqnt = True       nquant =       37
              qmgb =        2  qmcharge =        1   adjust_q =        2
              spin =        1     qmcut =  20.0000    qmshake =        1
          qmmm_int =        1
     lnk_atomic_no =        1   lnk_dis =   1.0900 lnk_method =        1
          qm_theory =     RM1 verbosity =        0
            qmqmdx = Analytical
      tight_p_conv = False (converge density to 0.05xSqrt[SCFCRT])
           scfconv = 0.100E-07  itrmax =     1000
      printcharges = False      printdipole = False      peptide_corr = False
    qmmmrij_incore = True
  qmqm_erep_incore = True
       pseudo_diag = True pseudo_diag_criteria =   0.0500
      diag_routine =        0
          qm_ewald =        0 qm_pme = False

--------------------------------------------------------------------------------
   3.  ATOMIC COORDINATES AND VELOCITIES
--------------------------------------------------------------------------------

default_name
 begin time read from input coords =     0.000 ps

 Number of triangulated 3-point waters found:        0
QMMM: ADJUSTING CHARGES
QMMM: ----------------------------------------------------------------------
QMMM: adjust_q = 2
QMMM: Uniformly adjusting the charge of MM atoms to conserve total charge.
QMMM:                             qm_charge =    1
QMMM: QM atom RESP charge sum (inc MM link) =    1.000
QMMM: Adjusting each MM atom resp charge by =   -0.000
QMMM:          Sum of MM + QM region is now =   -2.000
QMMM: ----------------------------------------------------------------------

QMMM: Link Atom Information
QMMM: ------------------------------------------------------------------------
QMMM: nlink =     0
QMMM: ------------------------------------------------------------------------

  QMMM: QM Region Cartesian Coordinates (*=link atom)
  QMMM: QM_NO.   MM_NO.  ATOM         X         Y         Z
  QMMM:     1     4647      C       13.7009   -1.4911   23.4476
  QMMM:     2     4648      N       12.2661   -1.0444   23.6340
  QMMM:     3     4649      O        8.9415    1.4144   21.1589
  QMMM:     4     4650      C       11.3189   -1.9688   22.8583
  QMMM:     5     4651      N        9.7406   -0.1209   22.6488
  QMMM:     6     4652      C        9.8727   -1.5117   23.1411
  QMMM:     7     4653      N        6.2255    0.2539   17.9346
  QMMM:     8     4654      C       10.6320    0.8270   23.3269
  QMMM:     9     4655      N        4.2197    1.5108   18.6593
  QMMM:    10     4656      C       12.0993    0.3951   23.1508
  QMMM:    11     4657      C        8.9136    0.2607   21.6016
  QMMM:    12     4658      C        7.9832   -0.7920   21.0361
  QMMM:    13     4659      C        7.1203   -0.2347   19.9781
  QMMM:    14     4660      C        7.2748   -0.3848   18.6129
  QMMM:    15     4661      C        5.3867    0.8184   18.8819
  QMMM:    16     4662      C        3.6189    1.8930   19.8103
  QMMM:    17     4663      N        4.0506    1.6417   21.0947
  QMMM:    18     4664      C        5.1968    0.9661   21.2751
  QMMM:    19     4665      C        5.9293    0.5216   20.1734
  QMMM:    20     4666      H       12.0162   -1.0946   24.6643
  QMMM:    21     4667      H       11.4727   -3.0307   23.1951
  QMMM:    22     4668      H       11.5635   -1.9603   21.7624
  QMMM:    23     4669      H        9.1782   -2.2369   22.6503
  QMMM:    24     4670      H        9.6084   -1.5479   24.2345
  QMMM:    25     4671      H       10.5122    1.8683   22.9386
  QMMM:    26     4672      H       10.3411    0.8947   24.4030
  QMMM:    27     4673      H       12.7718    1.0962   23.7087
  QMMM:    28     4674      H       12.4259    0.4864   22.0901
  QMMM:    29     4675      H        8.5726   -1.6373   20.6071
  QMMM:    30     4676      H        7.3305   -1.2134   21.8367
  QMMM:    31     4677      H        8.0503   -0.9183   18.0635
  QMMM:    32     4678      H        2.6814    2.4727   19.6862
  QMMM:    33     4679      H        5.4983    0.7770   22.3198
  QMMM:    34     4680      H        6.1665    0.3255   16.9243
  QMMM:    35     4681      H       13.8584   -2.5186   23.8464
  QMMM:    36     4682      H       13.9922   -1.5026   22.3765
  QMMM:    37     4683      H       14.4088   -0.8296   23.9878

--------------------------------------------------------------------------------
  3.1 QM CALCULATION INFO
--------------------------------------------------------------------------------

QMMM: SINGLET STATE CALCULATION
QMMM: RHF CALCULATION, NO. OF DOUBLY OCCUPIED LEVELS = 50

--------------------------------------------------------------------------------
   4.  RESULTS
 NSTEP =        0   TIME(PS) =       0.000  TEMP(K) =     0.00  PRESS =     0.0
 Etot   =    -11734.6003  EKtot   =         0.0000  EPtot      =    -11734.6003
 BOND   =       138.1510  ANGLE   =       551.2669  DIHED      =      1211.5297
 1-4 NB =       966.9868  1-4 EEL =     12158.6233  VDWAALS    =     -2642.2565
 EELEC  =    -21583.8050  EGB     =     -2882.2677  RESTRAINT  =         0.0000
 RM1ESCF=       117.6948
 CMAP   =       229.4764
 ------------------------------------------------------------------------------

      A V E R A G E S   O V E R   10000 S T E P S

 NSTEP =    10000   TIME(PS) =      20.000  TEMP(K) =   285.65  PRESS =     0.0
 Etot   =     -5069.0862  EKtot   =      3330.0691  EPtot      =     -8399.1553
 BOND   =       887.7205  ANGLE   =      2286.3177  DIHED      =      1655.1828
 1-4 NB =      1044.2400  1-4 EEL =     12002.2737  VDWAALS    =     -2367.4659
 EELEC  =    -20904.2461  EGB     =     -3333.2562  RESTRAINT  =         0.0000
 RM1ESCF=       111.3336
 CMAP   =       218.7447
 ------------------------------------------------------------------------------

      R M S  F L U C T U A T I O N S

 NSTEP =    10000   TIME(PS) =      20.000  TEMP(K) =    44.02  PRESS =     0.0
 Etot   =      1052.7354  EKtot   =       513.1765  EPtot      =       541.9592
 BOND   =       119.0089  ANGLE   =       274.7088  DIHED      =        75.3995
 1-4 NB =        19.8161  1-4 EEL =        40.8781  VDWAALS    =        54.6786
 EELEC  =       145.0604  EGB     =       113.6628  RESTRAINT  =         0.0000
 RM1ESCF=        27.1589
 CMAP   =         8.5651
 ------------------------------------------------------------------------------
