-------------------------------------------------------
          Amber 18 SANDER                              2018
          -------------------------------------------------------

  [-O]verwriting output

File Assignments:

 Here is the input file:

MD with GB7
 &cntrl
  nstlim = 10000, dt = 0.002,
  ntwr = 5000, ntwx = 500,
  ntc = 2, ntf = 2,
  ntt = 3, temp0 = 300, gamma_ln = 1.0,
  ntb = 0, igb = 7, cut = 9999.0,
  ifqnt = 1,
 /

 &qmmm
  qmmask = ':305', qmcharge = 1,
  qm_theory = 'RM1', qmcut = 20.0,
 /

--------------------------------------------------------------------------------
   1.  RESOURCE   USE:
--------------------------------------------------------------------------------

 NATOM  =    4683 NTYPES =      27 NBONH =    2316 MBONA  =    2421
 NTHETH =    5237 MTHETA =    3292 NPHIH =   10787 MPHIA  =   10504
 NHPARM =       0 NPARM  =       0 NNB   =   25789 NRES   =     305
 NBONA  =    2421 NTHETA =    3292 NPHIA =   10504 NUMBND =      94
 NUMANG =     215 NPTRA  =     217 NATYP =      50 NPHB   =       0
 IFBOX  =       0 NMXRS  =      37 IFCAP =       0 NEXTRA =       0
 NCOPY  =       0

 Implicit solvent radii are ArgH and AspGluO modified Bondi2 radii (mbondi3)
 Replacing prmtop screening parameters with GBn (igb=7) values

LOADING THE QUANTUM ATOMS AS GROUPS
     Mask :305; matches    37 atoms

--------------------------------------------------------------------------------
   2.  CONTROL  DATA  FOR  THE  RUN
--------------------------------------------------------------------------------

default_name

General flags:
     imin    =       0, nmropt  =       0

Nature and format of input:
     ntx     =       1, irest   =       0, ntrx    =       1

Nature and format of output:
     ntxo    =       2, ntpr    =      50, ntrx    =       1, ntwr    =    5000
     iwrap   =       0, ntwx    =     500, ntwv    =       0, ntwe    =       0
     ioutfm  =       1, ntwprt  =       0, idecomp =       0, rbornstat=      0

Potential function:
     ntf     =       2, ntb     =       0, igb     =       7, nsnb    =      25
     ipol    =       0, gbsa    =       0, iesp    =       0
     dielc   =   1.00000, cut     =9999.00000, intdiel =   1.00000
     saltcon =   0.00000, offset  =   0.09000, gbalpha=    1.09511
     gbbeta  =   1.90793, gbgamma =   2.50798, surften =   0.00500
     rdt     =   0.00000, rgbmax  =  25.00000  extdiel =  78.50000
     alpb  =        0

Frozen or restrained atoms:
     ibelly  =       0, ntr     =       0

Molecular dynamics:
     nstlim  =     10000, nscm    =      1000, nrespa  =         1
     t       =   0.00000, dt      =   0.00200, vlimit  =  20.00000

Langevin dynamics temperature regulation:
     ig      =   71277
     temp0   = 300.00000, tempi   =   0.00000, gamma_ln=   1.00000

SHAKE:
     ntc     =       2, jfastw  =       0
     tol     =   0.00001

QMMM options:
             ifqnt = True       nquant =       37
              qmgb =        2  qmcharge =        1   adjust_q =        2
              spin =        1     qmcut =  20.0000    qmshake =        1
          qmmm_int =        1
     lnk_atomic_no =        1   lnk_dis =   1.0900 lnk_method =        1
          qm_theory =     RM1 verbosity =        0
            qmqmdx = Analytical
      tight_p_conv = False (converge density to 0.05xSqrt[SCFCRT])
           scfconv = 0.100E-07  itrmax =     1000
      printcharges = False      printdipole = False      peptide_corr = False
    qmmmrij_incore = True
  qmqm_erep_incore = True
       pseudo_diag = True pseudo_diag_criteria =   0.0500
      diag_routine =        0
          qm_ewald =        0 qm_pme = False

--------------------------------------------------------------------------------
   3.  ATOMIC COORDINATES AND VELOCITIES
--------------------------------------------------------------------------------

default_name
 begin time read from input coords =     0.000 ps

 Number of triangulated 3-point waters found:        0
QMMM: ADJUSTING CHARGES
QMMM: ----------------------------------------------------------------------
QMMM: adjust_q = 2
QMMM: Uniformly adjusting the charge of MM atoms to conserve total charge.
QMMM:                             qm_charge =    1
QMMM: QM atom RESP charge sum (inc MM link) =    0.999
QMMM: Adjusting each MM atom resp charge by =   -0.000
QMMM:          Sum of MM + QM region is now =   -2.001
QMMM: ----------------------------------------------------------------------

QMMM: Link Atom Information
QMMM: ------------------------------------------------------------------------
QMMM: nlink =     0
QMMM: ------------------------------------------------------------------------

  QMMM: QM Region Cartesian Coordinates (*=link atom)
  QMMM: QM_NO.   MM_NO.  ATOM         X         Y         Z
  QMMM:     1     4647      C       13.6852   -1.5260   23.4095
  QMMM:     2     4648      N       12.2572   -1.0554   23.6107
  QMMM:     3     4649      O        8.9167    1.4222   21.1647
  QMMM:     4     4650      C       11.3036   -1.9728   22.8463
  QMMM:     5     4651      N        9.7415   -0.1328   22.6029
  QMMM:     6     4652      C        9.8658   -1.4998   23.1093
  QMMM:     7     4653      N        6.1842    0.2471   17.9455
  QMMM:     8     4654      C       10.6223    0.8238   23.2924
  QMMM:     9     4655      N        4.1975    1.5438   18.6657
  QMMM:    10     4656      C       12.0938    0.3918   23.1303
  QMMM:    11     4657      C        8.8655    0.2667   21.6043
  QMMM:    12     4658      C        7.9061   -0.7711   21.0566
  QMMM:    13     4659      C        7.0571   -0.2213   19.9907
  QMMM:    14     4660      C        7.2208   -0.3950   18.6284
  QMMM:    15     4661      C        5.3513    0.8390   18.8851
  QMMM:    16     4662      C        3.6123    1.9567   19.7962
  QMMM:    17     4663      C        4.1314    1.6833   21.1073
  QMMM:    18     4664      N        5.2493    0.9906   21.3263
  QMMM:    19     4665      C        5.8835    0.5567   20.1915
  QMMM:    20     4666      H       12.0054   -1.1223   24.6354
  QMMM:    21     4667      H       11.4361   -3.0439   23.1638
  QMMM:    22     4668      H       11.5273   -1.9686   21.7534
  QMMM:    23     4669      H        9.1537   -2.2230   22.6434
  QMMM:    24     4670      H        9.5918   -1.5418   24.1956
  QMMM:    25     4671      H       10.5265    1.8672   22.9161
  QMMM:    26     4672      H       10.3428    0.9005   24.3798
  QMMM:    27     4673      H       12.7772    1.0722   23.6967
  QMMM:    28     4674      H       12.4238    0.4672   22.0604
  QMMM:    29     4675      H        8.4895   -1.6306   20.6672
  QMMM:    30     4676      H        7.2689   -1.1693   21.8784
  QMMM:    31     4677      H        7.9906   -0.9689   18.0911
  QMMM:    32     4678      H        2.6820    2.5319   19.6762
  QMMM:    33     4679      H        6.0983    0.2789   16.9281
  QMMM:    34     4680      H       13.8395   -2.5546   23.8111
  QMMM:    35     4681      H       13.9710   -1.5337   22.3444
  QMMM:    36     4682      H       14.3982   -0.8657   23.9420
  QMMM:    37     4683      H        3.5950    2.0277   22.0063

--------------------------------------------------------------------------------
  3.1 QM CALCULATION INFO
--------------------------------------------------------------------------------

QMMM: SINGLET STATE CALCULATION
QMMM: RHF CALCULATION, NO. OF DOUBLY OCCUPIED LEVELS = 50

--------------------------------------------------------------------------------
   4.  RESULTS
 NSTEP =        0   TIME(PS) =       0.000  TEMP(K) =     0.00  PRESS =     0.0
 Etot   =    -11742.9016  EKtot   =         0.0000  EPtot      =    -11742.9016
 BOND   =       140.3129  ANGLE   =       552.6332  DIHED      =      1207.2784
 1-4 NB =       962.4265  1-4 EEL =     12148.9130  VDWAALS    =     -2643.8260
 EELEC  =    -21576.6933  EGB     =     -2888.1082  RESTRAINT  =         0.0000
 RM1ESCF=       128.5419
 CMAP   =       225.6199
 ------------------------------------------------------------------------------

      A V E R A G E S   O V E R   10000 S T E P S

 NSTEP =    10000   TIME(PS) =      20.000  TEMP(K) =   285.60  PRESS =     0.0
 Etot   =     -5067.7727  EKtot   =      3329.4482  EPtot      =     -8397.2209
 BOND   =       886.3031  ANGLE   =      2282.8831  DIHED      =      1664.5436
 1-4 NB =      1043.0482  1-4 EEL =     12017.9000  VDWAALS    =     -2361.1294
 EELEC  =    -20926.8582  EGB     =     -3338.9482  RESTRAINT  =         0.0000
 RM1ESCF=       114.1692
 CMAP   =       220.8679
 ------------------------------------------------------------------------------

      R M S  F L U C T U A T I O N S

 NSTEP =    10000   TIME(PS) =      20.000  TEMP(K) =    44.11  PRESS =     0.0
 Etot   =      1055.9610  EKtot   =       514.2402  EPtot      =       544.0884
 BOND   =       118.5710  ANGLE   =       273.7992  DIHED      =        78.4945
 1-4 NB =        20.0601  1-4 EEL =        40.9076  VDWAALS    =        57.3573
 EELEC  =       138.0750  EGB     =       122.4259  RESTRAINT  =         0.0000
 RM1ESCF=        31.8723
 CMAP   =         8.0999
 ------------------------------------------------------------------------------
