-------------------------------------------------------
          Amber 18 SANDER                              2018
          -------------------------------------------------------

  [-O]verwriting output

File Assignments:

 Here is the input file:

MD with GB7
 &cntrl
  nstlim = 10000, dt = 0.002,
  ntwr = 5000, ntwx = 500,
  ntc = 2, ntf = 2,
  ntt = 3, temp0 = 300, gamma_ln = 1.0,
  ntb = 0, igb = 7, cut = 9999.0,
  ifqnt = 1,
 /

 &qmmm
  qmmask = ':305', qmcharge = 1,
  qm_theory = 'RM1', qmcut = 20.0,
 /

--------------------------------------------------------------------------------
   1.  RESOURCE   USE:
--------------------------------------------------------------------------------

 NATOM  =    4684 NTYPES =      28 NBONH =    2317 MBONA  =    2421
 NTHETH =    5239 MTHETA =    3292 NPHIH =   10792 MPHIA  =   10504
 NHPARM =       0 NPARM  =       0 NNB   =   25796 NRES   =     305
 NBONA  =    2421 NTHETA =    3292 NPHIA =   10504 NUMBND =      95
 NUMANG =     216 NPTRA  =     216 NATYP =      51 NPHB   =       0
 IFBOX  =       0 NMXRS  =      38 IFCAP =       0 NEXTRA =       0
 NCOPY  =       0

 Implicit solvent radii are ArgH and AspGluO modified Bondi2 radii (mbondi3)
 Replacing prmtop screening parameters with GBn (igb=7) values

LOADING THE QUANTUM ATOMS AS GROUPS
     Mask :305; matches    38 atoms

--------------------------------------------------------------------------------
   2.  CONTROL  DATA  FOR  THE  RUN
--------------------------------------------------------------------------------

default_name

General flags:
     imin    =       0, nmropt  =       0

Nature and format of input:
     ntx     =       1, irest   =       0, ntrx    =       1

Nature and format of output:
     ntxo    =       2, ntpr    =      50, ntrx    =       1, ntwr    =    5000
     iwrap   =       0, ntwx    =     500, ntwv    =       0, ntwe    =       0
     ioutfm  =       1, ntwprt  =       0, idecomp =       0, rbornstat=      0

Potential function:
     ntf     =       2, ntb     =       0, igb     =       7, nsnb    =      25
     ipol    =       0, gbsa    =       0, iesp    =       0
     dielc   =   1.00000, cut     =9999.00000, intdiel =   1.00000
     saltcon =   0.00000, offset  =   0.09000, gbalpha=    1.09511
     gbbeta  =   1.90793, gbgamma =   2.50798, surften =   0.00500
     rdt     =   0.00000, rgbmax  =  25.00000  extdiel =  78.50000
     alpb  =        0

Frozen or restrained atoms:
     ibelly  =       0, ntr     =       0

Molecular dynamics:
     nstlim  =     10000, nscm    =      1000, nrespa  =         1
     t       =   0.00000, dt      =   0.00200, vlimit  =  20.00000

Langevin dynamics temperature regulation:
     ig      =   71277
     temp0   = 300.00000, tempi   =   0.00000, gamma_ln=   1.00000

SHAKE:
     ntc     =       2, jfastw  =       0
     tol     =   0.00001

QMMM options:
             ifqnt = True       nquant =       38
              qmgb =        2  qmcharge =        1   adjust_q =        2
              spin =        1     qmcut =  20.0000    qmshake =        1
          qmmm_int =        1
     lnk_atomic_no =        1   lnk_dis =   1.0900 lnk_method =        1
          qm_theory =     RM1 verbosity =        0
            qmqmdx = Analytical
      tight_p_conv = False (converge density to 0.05xSqrt[SCFCRT])
           scfconv = 0.100E-07  itrmax =     1000
      printcharges = False      printdipole = False      peptide_corr = False
    qmmmrij_incore = True
  qmqm_erep_incore = True
       pseudo_diag = True pseudo_diag_criteria =   0.0500
      diag_routine =        0
          qm_ewald =        0 qm_pme = False

--------------------------------------------------------------------------------
   3.  ATOMIC COORDINATES AND VELOCITIES
--------------------------------------------------------------------------------

default_name
 begin time read from input coords =     0.000 ps

 Number of triangulated 3-point waters found:        0
QMMM: ADJUSTING CHARGES
QMMM: ----------------------------------------------------------------------
QMMM: adjust_q = 2
QMMM: Uniformly adjusting the charge of MM atoms to conserve total charge.
QMMM:                             qm_charge =    1
QMMM: QM atom RESP charge sum (inc MM link) =    1.000
QMMM: Adjusting each MM atom resp charge by =    0.000
QMMM:          Sum of MM + QM region is now =   -2.000
QMMM: ----------------------------------------------------------------------

QMMM: Link Atom Information
QMMM: ------------------------------------------------------------------------
QMMM: nlink =     0
QMMM: ------------------------------------------------------------------------

  QMMM: QM Region Cartesian Coordinates (*=link atom)
  QMMM: QM_NO.   MM_NO.  ATOM         X         Y         Z
  QMMM:     1     4647      C       13.7040   -1.5135   23.4204
  QMMM:     2     4648      N       12.2695   -1.0561   23.6244
  QMMM:     3     4649      O        8.9459    1.4020   21.1659
  QMMM:     4     4650      C       11.3126   -1.9739   22.8565
  QMMM:     5     4651      N        9.7330   -0.1296   22.6454
  QMMM:     6     4652      C        9.8705   -1.5051   23.1363
  QMMM:     7     4653      N        6.2221    0.2276   17.9516
  QMMM:     8     4654      C       10.6257    0.8179   23.3274
  QMMM:     9     4655      N        4.2241    1.5020   18.6603
  QMMM:    10     4656      C       12.0977    0.3871   23.1432
  QMMM:    11     4657      C        8.8990    0.2460   21.5977
  QMMM:    12     4658      C        7.9609   -0.8003   21.0435
  QMMM:    13     4659      C        7.0987   -0.2469   19.9924
  QMMM:    14     4660      C        7.2711   -0.4023   18.6306
  QMMM:    15     4661      C        5.3804    0.7992   18.8999
  QMMM:    16     4662      C        3.5982    1.9100   19.7757
  QMMM:    17     4663      C        4.0424    1.6610   21.0994
  QMMM:    18     4664      C        5.2046    0.9575   21.3205
  QMMM:    19     4665      C        5.9052    0.5132   20.1968
  QMMM:    20     4666      H       12.0250   -1.1205   24.6554
  QMMM:    21     4667      H       11.4657   -3.0409   23.1709
  QMMM:    22     4668      H       11.5449   -1.9673   21.7613
  QMMM:    23     4669      H        9.1710   -2.2397   22.6716
  QMMM:    24     4670      H        9.6080   -1.5541   24.2280
  QMMM:    25     4671      H       10.5166    1.8638   22.9466
  QMMM:    26     4672      H       10.3452    0.8800   24.4105
  QMMM:    27     4673      H       12.7829    1.0760   23.7009
  QMMM:    28     4674      H       12.4186    0.4701   22.0755
  QMMM:    29     4675      H        8.5658   -1.6427   20.6365
  QMMM:    30     4676      H        7.3223   -1.2254   21.8526
  QMMM:    31     4677      H        8.0461   -0.9415   18.0807
  QMMM:    32     4678      H        2.6750    2.4815   19.5928
  QMMM:    33     4679      H        3.4442    2.0460   21.9362
  QMMM:    34     4680      H        5.5742    0.7397   22.3344
  QMMM:    35     4681      H        6.1285    0.2811   16.9409
  QMMM:    36     4682      H       13.8600   -2.5421   23.8185
  QMMM:    37     4683      H       13.9821   -1.5190   22.3478
  QMMM:    38     4684      H       14.4131   -0.8507   23.9578

--------------------------------------------------------------------------------
  3.1 QM CALCULATION INFO
--------------------------------------------------------------------------------

QMMM: SINGLET STATE CALCULATION
QMMM: RHF CALCULATION, NO. OF DOUBLY OCCUPIED LEVELS = 50

--------------------------------------------------------------------------------
   4.  RESULTS
 NSTEP =        0   TIME(PS) =       0.000  TEMP(K) =     0.00  PRESS =     0.0
 Etot   =    -11757.2972  EKtot   =         0.0000  EPtot      =    -11757.2972
 BOND   =       138.0645  ANGLE   =       552.1724  DIHED      =      1208.5359
 1-4 NB =       964.6376  1-4 EEL =     12152.8881  VDWAALS    =     -2643.5473
 EELEC  =    -21580.6602  EGB     =     -2884.9526  RESTRAINT  =         0.0000
 RM1ESCF=       108.2265
 CMAP   =       227.3378
 ------------------------------------------------------------------------------

      A V E R A G E S   O V E R   10000 S T E P S

 NSTEP =    10000   TIME(PS) =      20.000  TEMP(K) =   284.68  PRESS =     0.0
 Etot   =     -5085.0502  EKtot   =      3319.2704  EPtot      =     -8404.3206
 BOND   =       881.9381  ANGLE   =      2284.3748  DIHED      =      1651.6307
 1-4 NB =      1043.3505  1-4 EEL =     12012.5873  VDWAALS    =     -2368.6196
 EELEC  =    -20964.7912  EGB     =     -3294.7177  RESTRAINT  =         0.0000
 RM1ESCF=       123.8198
 CMAP   =       226.1064
 ------------------------------------------------------------------------------

      R M S  F L U C T U A T I O N S

 NSTEP =    10000   TIME(PS) =      20.000  TEMP(K) =    43.85  PRESS =     0.0
 Etot   =      1050.4974  EKtot   =       511.2624  EPtot      =       541.8114
 BOND   =       118.4660  ANGLE   =       273.9335  DIHED      =        75.2806
 1-4 NB =        19.5518  1-4 EEL =        40.2068  VDWAALS    =        54.8920
 EELEC  =       113.9546  EGB     =        92.7476  RESTRAINT  =         0.0000
 RM1ESCF=        45.0750
 CMAP   =         9.5416
 ------------------------------------------------------------------------------
