-------------------------------------------------------
          Amber 18 SANDER                              2018
          -------------------------------------------------------

  [-O]verwriting output

File Assignments:

 Here is the input file:

MD with GB7
 &cntrl
  nstlim = 50000, dt = 0.002,
  ntwr = 5000, ntwx = 500,
  ntc = 2, ntf = 2,
  ntt = 3, temp0 = 300, gamma_ln = 1.0,
  ntb = 0, igb = 7, cut = 9999.0,
 /

--------------------------------------------------------------------------------
   1.  RESOURCE   USE:
--------------------------------------------------------------------------------

 NATOM  =    4758 NTYPES =      15 NBONH =    2354 MBONA  =    2456
 NTHETH =    5320 MTHETA =    3338 NPHIH =   10960 MPHIA  =   10686
 NHPARM =       0 NPARM  =       0 NNB   =   26181 NRES   =     311
 NBONA  =    2456 NTHETA =    3338 NPHIA =   10686 NUMBND =      74
 NUMANG =     179 NPTRA  =     201 NATYP =      35 NPHB   =       0
 IFBOX  =       0 NMXRS  =      24 IFCAP =       0 NEXTRA =       0
 NCOPY  =       0

 Implicit solvent radii are ArgH and AspGluO modified Bondi2 radii (mbondi3)
 Replacing prmtop screening parameters with GBn (igb=7) values

--------------------------------------------------------------------------------
   2.  CONTROL  DATA  FOR  THE  RUN
--------------------------------------------------------------------------------

default_name

General flags:
     imin    =       0, nmropt  =       0

Nature and format of input:
     ntx     =       1, irest   =       0, ntrx    =       1

Nature and format of output:
     ntxo    =       2, ntpr    =      50, ntrx    =       1, ntwr    =    5000
     iwrap   =       0, ntwx    =     500, ntwv    =       0, ntwe    =       0
     ioutfm  =       1, ntwprt  =       0, idecomp =       0, rbornstat=      0

Potential function:
     ntf     =       2, ntb     =       0, igb     =       7, nsnb    =      25
     ipol    =       0, gbsa    =       0, iesp    =       0
     dielc   =   1.00000, cut     =9999.00000, intdiel =   1.00000
     saltcon =   0.00000, offset  =   0.09000, gbalpha=    1.09511
     gbbeta  =   1.90793, gbgamma =   2.50798, surften =   0.00500
     rdt     =   0.00000, rgbmax  =  25.00000  extdiel =  78.50000
     alpb  =        0

Frozen or restrained atoms:
     ibelly  =       0, ntr     =       0

Molecular dynamics:
     nstlim  =     50000, nscm    =      1000, nrespa  =         1
     t       =   0.00000, dt      =   0.00200, vlimit  =  20.00000

Langevin dynamics temperature regulation:
     ig      =   71277
     temp0   = 300.00000, tempi   =   0.00000, gamma_ln=   1.00000

SHAKE:
     ntc     =       2, jfastw  =       0
     tol     =   0.00001

--------------------------------------------------------------------------------
   3.  ATOMIC COORDINATES AND VELOCITIES
--------------------------------------------------------------------------------

default_name
 begin time read from input coords =     0.000 ps

 Number of triangulated 3-point waters found:        0

--------------------------------------------------------------------------------
   4.  RESULTS
 NSTEP =        0   TIME(PS) =       0.000  TEMP(K) =     0.00  PRESS =     0.0
 Etot   =    -12240.3502  EKtot   =         0.0000  EPtot      =    -12240.3502
 BOND   =       148.1635  ANGLE   =       570.6957  DIHED      =      1277.1242
 1-4 NB =       965.8545  1-4 EEL =     12324.2153  VDWAALS    =     -2696.5516
 EELEC  =    -21930.8265  EGB     =     -3111.5986  RESTRAINT  =         0.0000
 CMAP   =       212.5733
 ------------------------------------------------------------------------------

      A V E R A G E S   O V E R   50000 S T E P S

 NSTEP =    50000   TIME(PS) =     100.000  TEMP(K) =   296.88  PRESS =     0.0
 Etot   =     -5109.7632  EKtot   =      3516.1453  EPtot      =     -8625.9086
 BOND   =       936.5921  ANGLE   =      2407.7643  DIHED      =      1746.4909
 1-4 NB =      1072.8042  1-4 EEL =     12222.0167  VDWAALS    =     -2395.4644
 EELEC  =    -21286.8839  EGB     =     -3550.2635  RESTRAINT  =         0.0000
 CMAP   =       221.0350
 ------------------------------------------------------------------------------

      R M S  F L U C T U A T I O N S

 NSTEP =    50000   TIME(PS) =     100.000  TEMP(K) =    21.07  PRESS =     0.0
 Etot   =       507.6026  EKtot   =       249.5581  EPtot      =       262.6322
 BOND   =        61.0269  ANGLE   =       135.1053  DIHED      =        39.7089
 1-4 NB =        15.4191  1-4 EEL =        41.1861  VDWAALS    =        36.1200
 EELEC  =        94.5030  EGB     =        76.4316  RESTRAINT  =         0.0000
 CMAP   =         8.6625
 ------------------------------------------------------------------------------
