-------------------------------------------------------
          Amber 18 SANDER                              2018
          -------------------------------------------------------

  [-O]verwriting output

File Assignments:

 Here is the input file:

MD with GB7
 &cntrl
  nstlim = 10000, dt = 0.002,
  ntwr = 5000, ntwx = 500,
  ntc = 2, ntf = 2,
  ntt = 3, temp0 = 300, gamma_ln = 1.0,
  ntb = 0, igb = 7, cut = 9999.0,
  ifqnt = 1,
 /

 &qmmm
  qmmask = ':305', qmcharge = 1,
  qm_theory = 'RM1', qmcut = 20.0,
 /

--------------------------------------------------------------------------------
   1.  RESOURCE   USE:
--------------------------------------------------------------------------------

 NATOM  =    4684 NTYPES =      29 NBONH =    2316 MBONA  =    2422
 NTHETH =    5237 MTHETA =    3294 NPHIH =   10788 MPHIA  =   10508
 NHPARM =       0 NPARM  =       0 NNB   =   25796 NRES   =     305
 NBONA  =    2422 NTHETA =    3294 NPHIA =   10508 NUMBND =      95
 NUMANG =     216 NPTRA  =     216 NATYP =      52 NPHB   =       0
 IFBOX  =       0 NMXRS  =      38 IFCAP =       0 NEXTRA =       0
 NCOPY  =       0

 Implicit solvent radii are ArgH and AspGluO modified Bondi2 radii (mbondi3)
 Replacing prmtop screening parameters with GBn (igb=7) values

LOADING THE QUANTUM ATOMS AS GROUPS
     Mask :305; matches    38 atoms

--------------------------------------------------------------------------------
   2.  CONTROL  DATA  FOR  THE  RUN
--------------------------------------------------------------------------------

default_name

General flags:
     imin    =       0, nmropt  =       0

Nature and format of input:
     ntx     =       1, irest   =       0, ntrx    =       1

Nature and format of output:
     ntxo    =       2, ntpr    =      50, ntrx    =       1, ntwr    =    5000
     iwrap   =       0, ntwx    =     500, ntwv    =       0, ntwe    =       0
     ioutfm  =       1, ntwprt  =       0, idecomp =       0, rbornstat=      0

Potential function:
     ntf     =       2, ntb     =       0, igb     =       7, nsnb    =      25
     ipol    =       0, gbsa    =       0, iesp    =       0
     dielc   =   1.00000, cut     =9999.00000, intdiel =   1.00000
     saltcon =   0.00000, offset  =   0.09000, gbalpha=    1.09511
     gbbeta  =   1.90793, gbgamma =   2.50798, surften =   0.00500
     rdt     =   0.00000, rgbmax  =  25.00000  extdiel =  78.50000
     alpb  =        0

Frozen or restrained atoms:
     ibelly  =       0, ntr     =       0

Molecular dynamics:
     nstlim  =     10000, nscm    =      1000, nrespa  =         1
     t       =   0.00000, dt      =   0.00200, vlimit  =  20.00000

Langevin dynamics temperature regulation:
     ig      =   71277
     temp0   = 300.00000, tempi   =   0.00000, gamma_ln=   1.00000

SHAKE:
     ntc     =       2, jfastw  =       0
     tol     =   0.00001

QMMM options:
             ifqnt = True       nquant =       38
              qmgb =        2  qmcharge =        1   adjust_q =        2
              spin =        1     qmcut =  20.0000    qmshake =        1
          qmmm_int =        1
     lnk_atomic_no =        1   lnk_dis =   1.0900 lnk_method =        1
          qm_theory =     RM1 verbosity =        0
            qmqmdx = Analytical
      tight_p_conv = False (converge density to 0.05xSqrt[SCFCRT])
           scfconv = 0.100E-07  itrmax =     1000
      printcharges = False      printdipole = False      peptide_corr = False
    qmmmrij_incore = True
  qmqm_erep_incore = True
       pseudo_diag = True pseudo_diag_criteria =   0.0500
      diag_routine =        0
          qm_ewald =        0 qm_pme = False

--------------------------------------------------------------------------------
   3.  ATOMIC COORDINATES AND VELOCITIES
--------------------------------------------------------------------------------

default_name
 begin time read from input coords =     0.000 ps

 Number of triangulated 3-point waters found:        0
QMMM: ADJUSTING CHARGES
QMMM: ----------------------------------------------------------------------
QMMM: adjust_q = 2
QMMM: Uniformly adjusting the charge of MM atoms to conserve total charge.
QMMM:                             qm_charge =    1
QMMM: QM atom RESP charge sum (inc MM link) =    1.000
QMMM: Adjusting each MM atom resp charge by =   -0.000
QMMM:          Sum of MM + QM region is now =   -2.000
QMMM: ----------------------------------------------------------------------

QMMM: Link Atom Information
QMMM: ------------------------------------------------------------------------
QMMM: nlink =     0
QMMM: ------------------------------------------------------------------------

  QMMM: QM Region Cartesian Coordinates (*=link atom)
  QMMM: QM_NO.   MM_NO.  ATOM         X         Y         Z
  QMMM:     1     4647      C       13.6650   -1.5477   23.3581
  QMMM:     2     4648      N       12.2203   -1.1315   23.5665
  QMMM:     3     4649      O        8.8389    1.2440   21.0866
  QMMM:     4     4650      C       11.2924   -2.0624   22.7816
  QMMM:     5     4651      N        9.6674   -0.2629   22.5719
  QMMM:     6     4652      C        9.8381   -1.6387   23.0607
  QMMM:     7     4653      N        6.1244   -0.0250   17.8592
  QMMM:     8     4654      C       10.5283    0.7056   23.2635
  QMMM:     9     4655      N        4.2666    1.4592   18.5321
  QMMM:    10     4656      C       12.0152    0.3137   23.1146
  QMMM:    11     4657      C        8.8222    0.0934   21.5262
  QMMM:    12     4658      C        7.8977   -0.9800   20.9818
  QMMM:    13     4659      C        7.0289   -0.4329   19.9282
  QMMM:    14     4660      C        7.1199   -0.6921   18.5759
  QMMM:    15     4661      C        5.3701    0.6839   18.7961
  QMMM:    16     4662      C        3.6979    1.9743   19.6333
  QMMM:    17     4663      C        4.1490    1.7709   20.9614
  QMMM:    18     4664      C        5.2680    1.0026   21.2023
  QMMM:    19     4665      C        5.9071    0.4372   20.0958
  QMMM:    20     4666      H       11.9753   -1.2179   24.5960
  QMMM:    21     4667      H       11.4710   -3.1293   23.0811
  QMMM:    22     4668      H       11.5275   -2.0307   21.6858
  QMMM:    23     4669      H        9.1595   -2.3879   22.5868
  QMMM:    24     4670      H        9.5736   -1.6939   24.1484
  QMMM:    25     4671      H       10.4011    1.7457   22.8789
  QMMM:    26     4672      H       10.2277    0.7683   24.3385
  QMMM:    27     4673      H       12.6629    1.0115   23.7052
  QMMM:    28     4674      H       12.3657    0.4303   22.0636
  QMMM:    29     4675      H        8.4944   -1.8242   20.5569
  QMMM:    30     4676      H        7.2564   -1.3996   21.7938
  QMMM:    31     4677      Cl       8.1819   -1.7196   17.8166
  QMMM:    32     4678      H        2.8128    2.5969   19.4337
  QMMM:    33     4679      H        3.5922    2.2377   21.7838
  QMMM:    34     4680      H        5.6441    0.8248   22.2205
  QMMM:    35     4681      H        6.0540    0.0017   16.8429
  QMMM:    36     4682      H       13.8512   -2.5715   23.7551
  QMMM:    37     4683      H       13.9412   -1.5502   22.2857
  QMMM:    38     4684      H       14.3613   -0.8676   23.8880

--------------------------------------------------------------------------------
  3.1 QM CALCULATION INFO
--------------------------------------------------------------------------------

QMMM: SINGLET STATE CALCULATION
QMMM: RHF CALCULATION, NO. OF DOUBLY OCCUPIED LEVELS = 53

--------------------------------------------------------------------------------
   4.  RESULTS
 NSTEP =        0   TIME(PS) =       0.000  TEMP(K) =     0.00  PRESS =     0.0
 Etot   =    -11803.8892  EKtot   =         0.0000  EPtot      =    -11803.8892
 BOND   =       142.0454  ANGLE   =       554.9870  DIHED      =      1204.1947
 1-4 NB =       957.8904  1-4 EEL =     12137.9314  VDWAALS    =     -2645.7124
 EELEC  =    -21567.6605  EGB     =     -2894.2324  RESTRAINT  =         0.0000
 RM1ESCF=        85.3507
 CMAP   =       221.3167
 ------------------------------------------------------------------------------

      A V E R A G E S   O V E R   10000 S T E P S

 NSTEP =    10000   TIME(PS) =      20.000  TEMP(K) =   284.39  PRESS =     0.0
 Etot   =     -5123.9565  EKtot   =      3316.2286  EPtot      =     -8440.1851
 BOND   =       882.3198  ANGLE   =      2278.6174  DIHED      =      1652.9847
 1-4 NB =      1045.7168  1-4 EEL =     12013.6824  VDWAALS    =     -2384.1492
 EELEC  =    -20957.8731  EGB     =     -3290.1370  RESTRAINT  =         0.0000
 RM1ESCF=        96.9699
 CMAP   =       221.6832
 ------------------------------------------------------------------------------

      R M S  F L U C T U A T I O N S

 NSTEP =    10000   TIME(PS) =      20.000  TEMP(K) =    43.85  PRESS =     0.0
 Etot   =      1044.6780  EKtot   =       511.3673  EPtot      =       535.7321
 BOND   =       118.1392  ANGLE   =       271.1832  DIHED      =        76.2725
 1-4 NB =        20.4501  1-4 EEL =        39.6452  VDWAALS    =        47.9465
 EELEC  =       116.8461  EGB     =        93.1110  RESTRAINT  =         0.0000
 RM1ESCF=        35.0565
 CMAP   =         9.0343
 ------------------------------------------------------------------------------
