-------------------------------------------------------
          Amber 18 SANDER                              2018
          -------------------------------------------------------

  [-O]verwriting output

File Assignments:

 Here is the input file:

MD with GB7
 &cntrl
  nstlim = 10000, dt = 0.002,
  ntwr = 5000, ntwx = 500,
  ntc = 2, ntf = 2,
  ntt = 3, temp0 = 300, gamma_ln = 1.0,
  ntb = 0, igb = 7, cut = 9999.0,
  ifqnt = 1,
 /

 &qmmm
  qmmask = ':305', qmcharge = 1,
  qm_theory = 'RM1', qmcut = 20.0,
 /

--------------------------------------------------------------------------------
   1.  RESOURCE   USE:
--------------------------------------------------------------------------------

 NATOM  =    4683 NTYPES =      28 NBONH =    2315 MBONA  =    2422
 NTHETH =    5235 MTHETA =    3294 NPHIH =   10783 MPHIA  =   10508
 NHPARM =       0 NPARM  =       0 NNB   =   25789 NRES   =     305
 NBONA  =    2422 NTHETA =    3294 NPHIA =   10508 NUMBND =      94
 NUMANG =     215 NPTRA  =     217 NATYP =      51 NPHB   =       0
 IFBOX  =       0 NMXRS  =      37 IFCAP =       0 NEXTRA =       0
 NCOPY  =       0

 Implicit solvent radii are ArgH and AspGluO modified Bondi2 radii (mbondi3)
 Replacing prmtop screening parameters with GBn (igb=7) values

LOADING THE QUANTUM ATOMS AS GROUPS
     Mask :305; matches    37 atoms

--------------------------------------------------------------------------------
   2.  CONTROL  DATA  FOR  THE  RUN
--------------------------------------------------------------------------------

default_name

General flags:
     imin    =       0, nmropt  =       0

Nature and format of input:
     ntx     =       1, irest   =       0, ntrx    =       1

Nature and format of output:
     ntxo    =       2, ntpr    =      50, ntrx    =       1, ntwr    =    5000
     iwrap   =       0, ntwx    =     500, ntwv    =       0, ntwe    =       0
     ioutfm  =       1, ntwprt  =       0, idecomp =       0, rbornstat=      0

Potential function:
     ntf     =       2, ntb     =       0, igb     =       7, nsnb    =      25
     ipol    =       0, gbsa    =       0, iesp    =       0
     dielc   =   1.00000, cut     =9999.00000, intdiel =   1.00000
     saltcon =   0.00000, offset  =   0.09000, gbalpha=    1.09511
     gbbeta  =   1.90793, gbgamma =   2.50798, surften =   0.00500
     rdt     =   0.00000, rgbmax  =  25.00000  extdiel =  78.50000
     alpb  =        0

Frozen or restrained atoms:
     ibelly  =       0, ntr     =       0

Molecular dynamics:
     nstlim  =     10000, nscm    =      1000, nrespa  =         1
     t       =   0.00000, dt      =   0.00200, vlimit  =  20.00000

Langevin dynamics temperature regulation:
     ig      =   71277
     temp0   = 300.00000, tempi   =   0.00000, gamma_ln=   1.00000

SHAKE:
     ntc     =       2, jfastw  =       0
     tol     =   0.00001

QMMM options:
             ifqnt = True       nquant =       37
              qmgb =        2  qmcharge =        1   adjust_q =        2
              spin =        1     qmcut =  20.0000    qmshake =        1
          qmmm_int =        1
     lnk_atomic_no =        1   lnk_dis =   1.0900 lnk_method =        1
          qm_theory =     RM1 verbosity =        0
            qmqmdx = Analytical
      tight_p_conv = False (converge density to 0.05xSqrt[SCFCRT])
           scfconv = 0.100E-07  itrmax =     1000
      printcharges = False      printdipole = False      peptide_corr = False
    qmmmrij_incore = True
  qmqm_erep_incore = True
       pseudo_diag = True pseudo_diag_criteria =   0.0500
      diag_routine =        0
          qm_ewald =        0 qm_pme = False

--------------------------------------------------------------------------------
   3.  ATOMIC COORDINATES AND VELOCITIES
--------------------------------------------------------------------------------

default_name
 begin time read from input coords =     0.000 ps

 Number of triangulated 3-point waters found:        0
QMMM: ADJUSTING CHARGES
QMMM: ----------------------------------------------------------------------
QMMM: adjust_q = 2
QMMM: Uniformly adjusting the charge of MM atoms to conserve total charge.
QMMM:                             qm_charge =    1
QMMM: QM atom RESP charge sum (inc MM link) =    1.000
QMMM: Adjusting each MM atom resp charge by =   -0.000
QMMM:          Sum of MM + QM region is now =   -2.000
QMMM: ----------------------------------------------------------------------

QMMM: Link Atom Information
QMMM: ------------------------------------------------------------------------
QMMM: nlink =     0
QMMM: ------------------------------------------------------------------------

  QMMM: QM Region Cartesian Coordinates (*=link atom)
  QMMM: QM_NO.   MM_NO.  ATOM         X         Y         Z
  QMMM:     1     4647      C       13.6683   -1.4597   23.4778
  QMMM:     2     4648      N       12.2146   -1.0350   23.6366
  QMMM:     3     4649      O        8.8970    1.3452   21.0586
  QMMM:     4     4650      C       11.3075   -1.9828   22.8500
  QMMM:     5     4651      N        9.7060   -0.1712   22.5614
  QMMM:     6     4652      C        9.8552   -1.5447   23.0761
  QMMM:     7     4653      N        6.1872    0.1178   17.8340
  QMMM:     8     4654      C       10.5504    0.8024   23.2653
  QMMM:     9     4655      N        4.2735    1.5290   18.5601
  QMMM:    10     4656      C       12.0338    0.4031   23.1440
  QMMM:    11     4657      C        8.8704    0.1949   21.5134
  QMMM:    12     4658      C        7.9532   -0.8765   20.9473
  QMMM:    13     4659      C        7.0816   -0.3168   19.8989
  QMMM:    14     4660      C        7.1880   -0.5477   18.5405
  QMMM:    15     4661      C        5.4101    0.7876   18.7721
  QMMM:    16     4662      C        3.7112    1.9789   19.6878
  QMMM:    17     4663      C        4.2382    1.7161   20.9996
  QMMM:    18     4664      N        5.3418    1.0031   21.2109
  QMMM:    19     4665      C        5.9465    0.5282   20.0786
  QMMM:    20     4666      H       11.9471   -1.0991   24.6600
  QMMM:    21     4667      H       11.4741   -3.0364   23.1748
  QMMM:    22     4668      H       11.5763   -1.9742   21.7665
  QMMM:    23     4669      H        9.1860   -2.2913   22.5904
  QMMM:    24     4670      H        9.5516   -1.5850   24.1531
  QMMM:    25     4671      H       10.4316    1.8439   22.8713
  QMMM:    26     4672      H       10.2274    0.8711   24.3342
  QMMM:    27     4673      H       12.6815    1.1094   23.7211
  QMMM:    28     4674      H       12.3962    0.4913   22.0922
  QMMM:    29     4675      H        8.5595   -1.7171   20.5121
  QMMM:    30     4676      H        7.3119   -1.3235   21.7517
  QMMM:    31     4677      Cl       8.2516   -1.5520   17.7834
  QMMM:    32     4678      H        2.7916    2.5754   19.5680
  QMMM:    33     4679      H        6.1181    0.1565   16.8209
  QMMM:    34     4680      H       13.8442   -2.4849   23.8860
  QMMM:    35     4681      H       13.9834   -1.4674   22.4133
  QMMM:    36     4682      H       14.3569   -0.7767   24.0241
  QMMM:    37     4683      H        3.7239    2.0942   21.8994

--------------------------------------------------------------------------------
  3.1 QM CALCULATION INFO
--------------------------------------------------------------------------------

QMMM: SINGLET STATE CALCULATION
QMMM: RHF CALCULATION, NO. OF DOUBLY OCCUPIED LEVELS = 53

--------------------------------------------------------------------------------
   4.  RESULTS
 NSTEP =        0   TIME(PS) =       0.000  TEMP(K) =     0.00  PRESS =     0.0
 Etot   =    -11732.2612  EKtot   =         0.0000  EPtot      =    -11732.2612
 BOND   =       136.4510  ANGLE   =       551.7196  DIHED      =      1214.4275
 1-4 NB =       971.0533  1-4 EEL =     12168.8789  VDWAALS    =     -2641.0961
 EELEC  =    -21590.9632  EGB     =     -2868.9570  RESTRAINT  =         0.0000
 RM1ESCF=        94.4851
 CMAP   =       231.7398
 ------------------------------------------------------------------------------

      A V E R A G E S   O V E R   10000 S T E P S

 NSTEP =    10000   TIME(PS) =      20.000  TEMP(K) =   287.13  PRESS =     0.0
 Etot   =     -5032.1480  EKtot   =      3347.5996  EPtot      =     -8379.7477
 BOND   =       888.3018  ANGLE   =      2293.5809  DIHED      =      1660.3445
 1-4 NB =      1043.2462  1-4 EEL =     11997.7974  VDWAALS    =     -2360.1800
 EELEC  =    -20920.6306  EGB     =     -3320.1947  RESTRAINT  =         0.0000
 RM1ESCF=       114.8396
 CMAP   =       223.1472
 ------------------------------------------------------------------------------

      R M S  F L U C T U A T I O N S

 NSTEP =    10000   TIME(PS) =      20.000  TEMP(K) =    44.41  PRESS =     0.0
 Etot   =      1063.5608  EKtot   =       517.7819  EPtot      =       548.2057
 BOND   =       119.1015  ANGLE   =       276.5263  DIHED      =        76.9271
 1-4 NB =        20.0965  1-4 EEL =        41.9394  VDWAALS    =        57.1115
 EELEC  =       140.4096  EGB     =       116.3253  RESTRAINT  =         0.0000
 RM1ESCF=        29.9037
 CMAP   =         9.1716
 ------------------------------------------------------------------------------
