-------------------------------------------------------
          Amber 18 SANDER                              2018
          -------------------------------------------------------

  [-O]verwriting output

File Assignments:

 Here is the input file:

MD with GB7
 &cntrl
  nstlim = 10000, dt = 0.002,
  ntwr = 5000, ntwx = 500,
  ntc = 2, ntf = 2,
  ntt = 3, temp0 = 300, gamma_ln = 1.0,
  ntb = 0, igb = 7, cut = 9999.0,
  ifqnt = 1,
 /

 &qmmm
  qmmask = ':305', qmcharge = 1,
  qm_theory = 'RM1', qmcut = 20.0,
 /

--------------------------------------------------------------------------------
   1.  RESOURCE   USE:
--------------------------------------------------------------------------------

 NATOM  =    4683 NTYPES =      29 NBONH =    2315 MBONA  =    2422
 NTHETH =    5235 MTHETA =    3294 NPHIH =   10783 MPHIA  =   10508
 NHPARM =       0 NPARM  =       0 NNB   =   25790 NRES   =     305
 NBONA  =    2422 NTHETA =    3294 NPHIA =   10508 NUMBND =      95
 NUMANG =     217 NPTRA  =     216 NATYP =      52 NPHB   =       0
 IFBOX  =       0 NMXRS  =      37 IFCAP =       0 NEXTRA =       0
 NCOPY  =       0

 Implicit solvent radii are ArgH and AspGluO modified Bondi2 radii (mbondi3)
 Replacing prmtop screening parameters with GBn (igb=7) values

LOADING THE QUANTUM ATOMS AS GROUPS
     Mask :305; matches    37 atoms

--------------------------------------------------------------------------------
   2.  CONTROL  DATA  FOR  THE  RUN
--------------------------------------------------------------------------------

default_name

General flags:
     imin    =       0, nmropt  =       0

Nature and format of input:
     ntx     =       1, irest   =       0, ntrx    =       1

Nature and format of output:
     ntxo    =       2, ntpr    =      50, ntrx    =       1, ntwr    =    5000
     iwrap   =       0, ntwx    =     500, ntwv    =       0, ntwe    =       0
     ioutfm  =       1, ntwprt  =       0, idecomp =       0, rbornstat=      0

Potential function:
     ntf     =       2, ntb     =       0, igb     =       7, nsnb    =      25
     ipol    =       0, gbsa    =       0, iesp    =       0
     dielc   =   1.00000, cut     =9999.00000, intdiel =   1.00000
     saltcon =   0.00000, offset  =   0.09000, gbalpha=    1.09511
     gbbeta  =   1.90793, gbgamma =   2.50798, surften =   0.00500
     rdt     =   0.00000, rgbmax  =  25.00000  extdiel =  78.50000
     alpb  =        0

Frozen or restrained atoms:
     ibelly  =       0, ntr     =       0

Molecular dynamics:
     nstlim  =     10000, nscm    =      1000, nrespa  =         1
     t       =   0.00000, dt      =   0.00200, vlimit  =  20.00000

Langevin dynamics temperature regulation:
     ig      =   71277
     temp0   = 300.00000, tempi   =   0.00000, gamma_ln=   1.00000

SHAKE:
     ntc     =       2, jfastw  =       0
     tol     =   0.00001

QMMM options:
             ifqnt = True       nquant =       37
              qmgb =        2  qmcharge =        1   adjust_q =        2
              spin =        1     qmcut =  20.0000    qmshake =        1
          qmmm_int =        1
     lnk_atomic_no =        1   lnk_dis =   1.0900 lnk_method =        1
          qm_theory =     RM1 verbosity =        0
            qmqmdx = Analytical
      tight_p_conv = False (converge density to 0.05xSqrt[SCFCRT])
           scfconv = 0.100E-07  itrmax =     1000
      printcharges = False      printdipole = False      peptide_corr = False
    qmmmrij_incore = True
  qmqm_erep_incore = True
       pseudo_diag = True pseudo_diag_criteria =   0.0500
      diag_routine =        0
          qm_ewald =        0 qm_pme = False

--------------------------------------------------------------------------------
   3.  ATOMIC COORDINATES AND VELOCITIES
--------------------------------------------------------------------------------

default_name
 begin time read from input coords =     0.000 ps

 Number of triangulated 3-point waters found:        0
QMMM: ADJUSTING CHARGES
QMMM: ----------------------------------------------------------------------
QMMM: adjust_q = 2
QMMM: Uniformly adjusting the charge of MM atoms to conserve total charge.
QMMM:                             qm_charge =    1
QMMM: QM atom RESP charge sum (inc MM link) =    0.999
QMMM: Adjusting each MM atom resp charge by =   -0.000
QMMM:          Sum of MM + QM region is now =   -2.001
QMMM: ----------------------------------------------------------------------

QMMM: Link Atom Information
QMMM: ------------------------------------------------------------------------
QMMM: nlink =     0
QMMM: ------------------------------------------------------------------------

  QMMM: QM Region Cartesian Coordinates (*=link atom)
  QMMM: QM_NO.   MM_NO.  ATOM         X         Y         Z
  QMMM:     1     4647      C       13.6886   -1.4261   23.5224
  QMMM:     2     4648      N       12.2379   -1.0092   23.6710
  QMMM:     3     4649      O        8.9576    1.3401   21.0573
  QMMM:     4     4650      C       11.3317   -1.9613   22.8826
  QMMM:     5     4651      N        9.7177   -0.1574   22.5934
  QMMM:     6     4652      C        9.8683   -1.5301   23.1039
  QMMM:     7     4653      N        6.2342    0.1681   17.8422
  QMMM:     8     4654      C       10.5584    0.8177   23.2932
  QMMM:     9     4655      N        4.3082    1.5412   18.5780
  QMMM:    10     4656      C       12.0446    0.4233   23.1682
  QMMM:    11     4657      C        8.9170    0.1901   21.5141
  QMMM:    12     4658      C        8.0143   -0.8791   20.9346
  QMMM:    13     4659      C        7.1353   -0.3075   19.8992
  QMMM:    14     4660      C        7.2391   -0.5121   18.5422
  QMMM:    15     4661      C        5.4527    0.8064   18.7952
  QMMM:    16     4662      C        3.7298    1.9548   19.7232
  QMMM:    17     4663      N        4.1597    1.7234   21.0185
  QMMM:    18     4664      C        5.2822    1.0148   21.1989
  QMMM:    19     4665      C        5.9903    0.5201   20.0936
  QMMM:    20     4666      H       11.9567   -1.0664   24.6889
  QMMM:    21     4667      H       11.5000   -3.0218   23.2163
  QMMM:    22     4668      H       11.6040   -1.9594   21.7950
  QMMM:    23     4669      H        9.2069   -2.2857   22.6158
  QMMM:    24     4670      H        9.5610   -1.5668   24.1827
  QMMM:    25     4671      H       10.4369    1.8576   22.9027
  QMMM:    26     4672      H       10.2340    0.8907   24.3648
  QMMM:    27     4673      H       12.6903    1.1415   23.7353
  QMMM:    28     4674      H       12.3983    0.5006   22.1117
  QMMM:    29     4675      H        8.6395   -1.6833   20.4753
  QMMM:    30     4676      H        7.3772   -1.3517   21.7186
  QMMM:    31     4677      Cl       8.3036   -1.5011   17.7543
  QMMM:    32     4678      H        2.7912    2.5385   19.6377
  QMMM:    33     4679      H        5.5866    0.8253   22.2519
  QMMM:    34     4680      H        6.1656    0.2125   16.8245
  QMMM:    35     4681      H       13.8634   -2.4471   23.9317
  QMMM:    36     4682      H       14.0076   -1.4338   22.4619
  QMMM:    37     4683      H       14.3647   -0.7443   24.0754

--------------------------------------------------------------------------------
  3.1 QM CALCULATION INFO
--------------------------------------------------------------------------------

QMMM: SINGLET STATE CALCULATION
QMMM: RHF CALCULATION, NO. OF DOUBLY OCCUPIED LEVELS = 53

--------------------------------------------------------------------------------
   4.  RESULTS
 NSTEP =        0   TIME(PS) =       0.000  TEMP(K) =     0.00  PRESS =     0.0
 Etot   =    -11682.2964  EKtot   =         0.0000  EPtot      =    -11682.2964
 BOND   =       134.5500  ANGLE   =       554.6330  DIHED      =      1223.3118
 1-4 NB =       977.2677  1-4 EEL =     12186.8608  VDWAALS    =     -2632.3377
 EELEC  =    -21607.3207  EGB     =     -2863.7440  RESTRAINT  =         0.0000
 RM1ESCF=       107.9559
 CMAP   =       236.5269
 ------------------------------------------------------------------------------

      A V E R A G E S   O V E R   10000 S T E P S

 NSTEP =    10000   TIME(PS) =      20.000  TEMP(K) =   285.54  PRESS =     0.0
 Etot   =     -5043.4137  EKtot   =      3329.0845  EPtot      =     -8372.4983
 BOND   =       887.7541  ANGLE   =      2284.6202  DIHED      =      1664.8420
 1-4 NB =      1043.3020  1-4 EEL =     12021.2024  VDWAALS    =     -2362.3399
 EELEC  =    -20948.4862  EGB     =     -3309.3797  RESTRAINT  =         0.0000
 RM1ESCF=       121.4113
 CMAP   =       224.5755
 ------------------------------------------------------------------------------

      R M S  F L U C T U A T I O N S

 NSTEP =    10000   TIME(PS) =      20.000  TEMP(K) =    43.55  PRESS =     0.0
 Etot   =      1050.8373  EKtot   =       507.7263  EPtot      =       545.5956
 BOND   =       118.5254  ANGLE   =       272.5129  DIHED      =        76.9061
 1-4 NB =        19.6774  1-4 EEL =        40.1849  VDWAALS    =        55.0603
 EELEC  =       132.8278  EGB     =       109.4031  RESTRAINT  =         0.0000
 RM1ESCF=        29.7387
 CMAP   =         8.5002
 ------------------------------------------------------------------------------
