-------------------------------------------------------
          Amber 18 SANDER                              2018
          -------------------------------------------------------

  [-O]verwriting output

File Assignments:

 Here is the input file:

MD with GB7
 &cntrl
  nstlim = 10000, dt = 0.002,
  ntwr = 5000, ntwx = 500,
  ntc = 2, ntf = 2,
  ntt = 3, temp0 = 300, gamma_ln = 1.0,
  ntb = 0, igb = 7, cut = 9999.0,
  ifqnt = 1,
 /

 &qmmm
  qmmask = ':305', qmcharge = 0,
  qm_theory = 'RM1', qmcut = 20.0,
 /

--------------------------------------------------------------------------------
   1.  RESOURCE   USE:
--------------------------------------------------------------------------------

 NATOM  =    4683 NTYPES =      24 NBONH =    2316 MBONA  =    2421
 NTHETH =    5238 MTHETA =    3291 NPHIH =   10795 MPHIA  =   10511
 NHPARM =       0 NPARM  =       0 NNB   =   25793 NRES   =     305
 NBONA  =    2421 NTHETA =    3291 NPHIA =   10511 NUMBND =      90
 NUMANG =     205 NPTRA  =     221 NATYP =      47 NPHB   =       0
 IFBOX  =       0 NMXRS  =      37 IFCAP =       0 NEXTRA =       0
 NCOPY  =       0

 Implicit solvent radii are ArgH and AspGluO modified Bondi2 radii (mbondi3)
 Replacing prmtop screening parameters with GBn (igb=7) values

LOADING THE QUANTUM ATOMS AS GROUPS
     Mask :305; matches    37 atoms

--------------------------------------------------------------------------------
   2.  CONTROL  DATA  FOR  THE  RUN
--------------------------------------------------------------------------------

default_name

General flags:
     imin    =       0, nmropt  =       0

Nature and format of input:
     ntx     =       1, irest   =       0, ntrx    =       1

Nature and format of output:
     ntxo    =       2, ntpr    =      50, ntrx    =       1, ntwr    =    5000
     iwrap   =       0, ntwx    =     500, ntwv    =       0, ntwe    =       0
     ioutfm  =       1, ntwprt  =       0, idecomp =       0, rbornstat=      0

Potential function:
     ntf     =       2, ntb     =       0, igb     =       7, nsnb    =      25
     ipol    =       0, gbsa    =       0, iesp    =       0
     dielc   =   1.00000, cut     =9999.00000, intdiel =   1.00000
     saltcon =   0.00000, offset  =   0.09000, gbalpha=    1.09511
     gbbeta  =   1.90793, gbgamma =   2.50798, surften =   0.00500
     rdt     =   0.00000, rgbmax  =  25.00000  extdiel =  78.50000
     alpb  =        0

Frozen or restrained atoms:
     ibelly  =       0, ntr     =       0

Molecular dynamics:
     nstlim  =     10000, nscm    =      1000, nrespa  =         1
     t       =   0.00000, dt      =   0.00200, vlimit  =  20.00000

Langevin dynamics temperature regulation:
     ig      =   71277
     temp0   = 300.00000, tempi   =   0.00000, gamma_ln=   1.00000

SHAKE:
     ntc     =       2, jfastw  =       0
     tol     =   0.00001

QMMM options:
             ifqnt = True       nquant =       37
              qmgb =        2  qmcharge =        0   adjust_q =        2
              spin =        1     qmcut =  20.0000    qmshake =        1
          qmmm_int =        1
     lnk_atomic_no =        1   lnk_dis =   1.0900 lnk_method =        1
          qm_theory =     RM1 verbosity =        0
            qmqmdx = Analytical
      tight_p_conv = False (converge density to 0.05xSqrt[SCFCRT])
           scfconv = 0.100E-07  itrmax =     1000
      printcharges = False      printdipole = False      peptide_corr = False
    qmmmrij_incore = True
  qmqm_erep_incore = True
       pseudo_diag = True pseudo_diag_criteria =   0.0500
      diag_routine =        0
          qm_ewald =        0 qm_pme = False

--------------------------------------------------------------------------------
   3.  ATOMIC COORDINATES AND VELOCITIES
--------------------------------------------------------------------------------

default_name
 begin time read from input coords =     0.000 ps

 Number of triangulated 3-point waters found:        0
QMMM: ADJUSTING CHARGES
QMMM: ----------------------------------------------------------------------
QMMM: adjust_q = 2
QMMM: Uniformly adjusting the charge of MM atoms to conserve total charge.
QMMM:                             qm_charge =    0
QMMM: QM atom RESP charge sum (inc MM link) =    0.000
QMMM: Adjusting each MM atom resp charge by =    0.000
QMMM:          Sum of MM + QM region is now =   -3.000
QMMM: ----------------------------------------------------------------------

QMMM: Link Atom Information
QMMM: ------------------------------------------------------------------------
QMMM: nlink =     0
QMMM: ------------------------------------------------------------------------

  QMMM: QM Region Cartesian Coordinates (*=link atom)
  QMMM: QM_NO.   MM_NO.  ATOM         X         Y         Z
  QMMM:     1     4647      O        9.3304    1.2211   20.9935
  QMMM:     2     4648      C        8.7317    0.5462   21.8335
  QMMM:     3     4649      C        9.3282    0.0881   23.1447
  QMMM:     4     4650      C       10.8561    0.0237   23.0461
  QMMM:     5     4651      C       11.2808   -1.0509   22.0412
  QMMM:     6     4652      C       12.4931   -1.8517   22.5057
  QMMM:     7     4653      C       13.5412   -0.9873   23.1873
  QMMM:     8     4654      C       12.9682   -0.1596   24.3353
  QMMM:     9     4655      C       11.4499   -0.2611   24.4250
  QMMM:    10     4656      N        7.3909    0.2135   21.6135
  QMMM:    11     4657      C        6.7664    0.5143   20.3902
  QMMM:    12     4658      C        5.5153    1.1467   20.3580
  QMMM:    13     4659      C        4.9458    1.4667   19.0985
  QMMM:    14     4660      C        5.6193    1.1318   17.9066
  QMMM:    15     4661      N        6.7965    0.5097   17.9532
  QMMM:    16     4662      C        7.3553    0.2027   19.1608
  QMMM:    17     4663      H        8.9206   -0.8981   23.4636
  QMMM:    18     4664      H        9.0080    0.8025   23.9359
  QMMM:    19     4665      H       11.2420    1.0192   22.7039
  QMMM:    20     4666      H       10.4546   -1.7595   21.8129
  QMMM:    21     4667      H       11.4770   -0.5743   21.0622
  QMMM:    22     4668      H       12.9516   -2.3720   21.6392
  QMMM:    23     4669      H       12.1756   -2.6698   23.1871
  QMMM:    24     4670      H       14.3639   -1.6352   23.5589
  QMMM:    25     4671      H       14.0252   -0.3263   22.4413
  QMMM:    26     4672      H       13.4344   -0.4691   25.2930
  QMMM:    27     4673      H       13.2606    0.9056   24.2131
  QMMM:    28     4674      H       11.0601    0.4515   25.1814
  QMMM:    29     4675      H       11.1299   -1.2556   24.7966
  QMMM:    30     4676      H        6.8133   -0.1950   22.3513
  QMMM:    31     4677      C        4.5599    1.6008   21.3345
  QMMM:    32     4678      N        3.7132    2.0562   19.3570
  QMMM:    33     4679      H        5.2239    1.3968   16.9236
  QMMM:    34     4680      H        8.3204   -0.3232   19.0909
  QMMM:    35     4681      N        3.5027    2.1549   20.7040
  QMMM:    36     4682      H        3.1394    2.5738   18.6887
  QMMM:    37     4683      H        4.6295    1.5199   22.4246

--------------------------------------------------------------------------------
  3.1 QM CALCULATION INFO
--------------------------------------------------------------------------------

QMMM: SINGLET STATE CALCULATION
QMMM: RHF CALCULATION, NO. OF DOUBLY OCCUPIED LEVELS = 50

--------------------------------------------------------------------------------
   4.  RESULTS
 NSTEP =        0   TIME(PS) =       0.000  TEMP(K) =     0.00  PRESS =     0.0
 Etot   =    -11960.7017  EKtot   =         0.0000  EPtot      =    -11960.7017
 BOND   =       142.3644  ANGLE   =       550.3920  DIHED      =      1199.9384
 1-4 NB =       950.6876  1-4 EEL =     12145.6173  VDWAALS    =     -2640.0193
 EELEC  =    -21567.6451  EGB     =     -2938.3541  RESTRAINT  =         0.0000
 RM1ESCF=       -23.7320
 CMAP   =       220.0492
 ------------------------------------------------------------------------------

      A V E R A G E S   O V E R   10000 S T E P S

 NSTEP =    10000   TIME(PS) =      20.000  TEMP(K) =   286.98  PRESS =     0.0
 Etot   =     -5135.0134  EKtot   =      3345.6199  EPtot      =     -8480.6333
 BOND   =       886.9404  ANGLE   =      2286.9098  DIHED      =      1666.0160
 1-4 NB =      1046.1992  1-4 EEL =     12032.9398  VDWAALS    =     -2360.0348
 EELEC  =    -20912.8337  EGB     =     -3362.7268  RESTRAINT  =         0.0000
 RM1ESCF=        14.0493
 CMAP   =       221.9074
 ------------------------------------------------------------------------------

      R M S  F L U C T U A T I O N S

 NSTEP =    10000   TIME(PS) =      20.000  TEMP(K) =    44.92  PRESS =     0.0
 Etot   =      1083.2724  EKtot   =       523.6947  EPtot      =       561.6337
 BOND   =       119.1915  ANGLE   =       276.2833  DIHED      =        80.3953
 1-4 NB =        20.7557  1-4 EEL =        40.8021  VDWAALS    =        57.6421
 EELEC  =       158.8077  EGB     =       129.8107  RESTRAINT  =         0.0000
 RM1ESCF=         7.8815
 CMAP   =         7.7076
 ------------------------------------------------------------------------------
