-------------------------------------------------------
          Amber 18 SANDER                              2018
          -------------------------------------------------------

  [-O]verwriting output

File Assignments:

 Here is the input file:

MD with GB7
 &cntrl
  nstlim = 10000, dt = 0.002,
  ntwr = 5000, ntwx = 500,
  ntc = 2, ntf = 2,
  ntt = 3, temp0 = 300, gamma_ln = 1.0,
  ntb = 0, igb = 7, cut = 9999.0,
  ifqnt = 1,
 /

 &qmmm
  qmmask = ':305', qmcharge = 0,
  qm_theory = 'RM1', qmcut = 20.0,
 /

--------------------------------------------------------------------------------
   1.  RESOURCE   USE:
--------------------------------------------------------------------------------

 NATOM  =    4677 NTYPES =      22 NBONH =    2309 MBONA  =    2422
 NTHETH =    5217 MTHETA =    3292 NPHIH =   10762 MPHIA  =   10496
 NHPARM =       0 NPARM  =       0 NNB   =   25731 NRES   =     305
 NBONA  =    2422 NTHETA =    3292 NPHIA =   10496 NUMBND =      82
 NUMANG =     191 NPTRA  =     204 NATYP =      43 NPHB   =       0
 IFBOX  =       0 NMXRS  =      31 IFCAP =       0 NEXTRA =       0
 NCOPY  =       0

 Implicit solvent radii are ArgH and AspGluO modified Bondi2 radii (mbondi3)
 Replacing prmtop screening parameters with GBn (igb=7) values

LOADING THE QUANTUM ATOMS AS GROUPS
     Mask :305; matches    31 atoms

--------------------------------------------------------------------------------
   2.  CONTROL  DATA  FOR  THE  RUN
--------------------------------------------------------------------------------

default_name

General flags:
     imin    =       0, nmropt  =       0

Nature and format of input:
     ntx     =       1, irest   =       0, ntrx    =       1

Nature and format of output:
     ntxo    =       2, ntpr    =      50, ntrx    =       1, ntwr    =    5000
     iwrap   =       0, ntwx    =     500, ntwv    =       0, ntwe    =       0
     ioutfm  =       1, ntwprt  =       0, idecomp =       0, rbornstat=      0

Potential function:
     ntf     =       2, ntb     =       0, igb     =       7, nsnb    =      25
     ipol    =       0, gbsa    =       0, iesp    =       0
     dielc   =   1.00000, cut     =9999.00000, intdiel =   1.00000
     saltcon =   0.00000, offset  =   0.09000, gbalpha=    1.09511
     gbbeta  =   1.90793, gbgamma =   2.50798, surften =   0.00500
     rdt     =   0.00000, rgbmax  =  25.00000  extdiel =  78.50000
     alpb  =        0

Frozen or restrained atoms:
     ibelly  =       0, ntr     =       0

Molecular dynamics:
     nstlim  =     10000, nscm    =      1000, nrespa  =         1
     t       =   0.00000, dt      =   0.00200, vlimit  =  20.00000

Langevin dynamics temperature regulation:
     ig      =   71277
     temp0   = 300.00000, tempi   =   0.00000, gamma_ln=   1.00000

SHAKE:
     ntc     =       2, jfastw  =       0
     tol     =   0.00001

QMMM options:
             ifqnt = True       nquant =       31
              qmgb =        2  qmcharge =        0   adjust_q =        2
              spin =        1     qmcut =  20.0000    qmshake =        1
          qmmm_int =        1
     lnk_atomic_no =        1   lnk_dis =   1.0900 lnk_method =        1
          qm_theory =     RM1 verbosity =        0
            qmqmdx = Analytical
      tight_p_conv = False (converge density to 0.05xSqrt[SCFCRT])
           scfconv = 0.100E-07  itrmax =     1000
      printcharges = False      printdipole = False      peptide_corr = False
    qmmmrij_incore = True
  qmqm_erep_incore = True
       pseudo_diag = True pseudo_diag_criteria =   0.0500
      diag_routine =        0
          qm_ewald =        0 qm_pme = False

--------------------------------------------------------------------------------
   3.  ATOMIC COORDINATES AND VELOCITIES
--------------------------------------------------------------------------------

default_name
 begin time read from input coords =     0.000 ps

 Number of triangulated 3-point waters found:        0
QMMM: ADJUSTING CHARGES
QMMM: ----------------------------------------------------------------------
QMMM: adjust_q = 2
QMMM: Uniformly adjusting the charge of MM atoms to conserve total charge.
QMMM:                             qm_charge =    0
QMMM: QM atom RESP charge sum (inc MM link) =    0.001
QMMM: Adjusting each MM atom resp charge by =    0.000
QMMM:          Sum of MM + QM region is now =   -2.999
QMMM: ----------------------------------------------------------------------

QMMM: Link Atom Information
QMMM: ------------------------------------------------------------------------
QMMM: nlink =     0
QMMM: ------------------------------------------------------------------------

  QMMM: QM Region Cartesian Coordinates (*=link atom)
  QMMM: QM_NO.   MM_NO.  ATOM         X         Y         Z
  QMMM:     1     4647      O        8.8444    0.9162   20.7032
  QMMM:     2     4648      C        8.3785   -0.0304   21.3599
  QMMM:     3     4649      N        9.1170   -0.7315   22.3009
  QMMM:     4     4650      C       10.4239   -0.2542   22.6202
  QMMM:     5     4651      C       10.5448    0.8875   23.4142
  QMMM:     6     4652      C       11.8122    1.3784   23.6994
  QMMM:     7     4653      C       12.9379    0.7327   23.2016
  QMMM:     8     4654      C       12.8032   -0.4203   22.4364
  QMMM:     9     4655      C       11.5453   -0.9257   22.1324
  QMMM:    10     4656      N        7.0403   -0.4571   21.1744
  QMMM:    11     4657      C        6.3215    0.1245   20.1131
  QMMM:    12     4658      C        5.1295    0.8670   20.3606
  QMMM:    13     4659      C        4.4133    1.3721   19.2585
  QMMM:    14     4660      C        4.9365    1.1584   17.9461
  QMMM:    15     4661      N        6.0636    0.4932   17.7282
  QMMM:    16     4662      C        6.7479   -0.0224   18.8021
  QMMM:    17     4663      H        8.7986   -1.6037   22.7214
  QMMM:    18     4664      H        9.6563    1.3961   23.8064
  QMMM:    19     4665      H       11.9133    2.2833   24.3062
  QMMM:    20     4666      H       13.9317    1.1496   23.3846
  QMMM:    21     4667      H       13.6929   -0.9273   22.0529
  QMMM:    22     4668      H       11.4393   -1.8258   21.5152
  QMMM:    23     4669      H        6.5000   -0.8162   21.9671
  QMMM:    24     4670      H        4.4185    1.5737   17.0687
  QMMM:    25     4671      H        7.6676   -0.5683   18.5407
  QMMM:    26     4672      N        4.6923    1.0796   21.6634
  QMMM:    27     4673      C        3.5846    1.7804   21.8152
  QMMM:    28     4674      C        2.8213    2.2588   20.6777
  QMMM:    29     4675      H        3.2345    1.9730   22.8535
  QMMM:    30     4676      N        3.2146    2.0535   19.4349
  QMMM:    31     4677      H        1.8623    2.7978   20.8217

--------------------------------------------------------------------------------
  3.1 QM CALCULATION INFO
--------------------------------------------------------------------------------

QMMM: SINGLET STATE CALCULATION
QMMM: RHF CALCULATION, NO. OF DOUBLY OCCUPIED LEVELS = 49

--------------------------------------------------------------------------------
   4.  RESULTS
 NSTEP =        0   TIME(PS) =       0.000  TEMP(K) =     0.00  PRESS =     0.0
 Etot   =    -11915.1662  EKtot   =         0.0000  EPtot      =    -11915.1662
 BOND   =       144.3507  ANGLE   =       553.6790  DIHED      =      1196.4298
 1-4 NB =       951.5684  1-4 EEL =     12135.2390  VDWAALS    =     -2643.9606
 EELEC  =    -21574.6321  EGB     =     -2949.6839  RESTRAINT  =         0.0000
 RM1ESCF=        52.1208
 CMAP   =       219.7228
 ------------------------------------------------------------------------------

      A V E R A G E S   O V E R   10000 S T E P S

 NSTEP =    10000   TIME(PS) =      20.000  TEMP(K) =   284.63  PRESS =     0.0
 Etot   =     -5166.8595  EKtot   =      3315.0699  EPtot      =     -8481.9294
 BOND   =       881.1457  ANGLE   =      2278.7085  DIHED      =      1661.4271
 1-4 NB =      1043.8526  1-4 EEL =     11995.6349  VDWAALS    =     -2374.4679
 EELEC  =    -20905.2061  EGB     =     -3354.5079  RESTRAINT  =         0.0000
 RM1ESCF=        71.1794
 CMAP   =       220.3043
 ------------------------------------------------------------------------------

      R M S  F L U C T U A T I O N S

 NSTEP =    10000   TIME(PS) =      20.000  TEMP(K) =    44.27  PRESS =     0.0
 Etot   =      1062.7157  EKtot   =       515.6140  EPtot      =       549.1251
 BOND   =       118.2074  ANGLE   =       272.0376  DIHED      =        80.0839
 1-4 NB =        20.0957  1-4 EEL =        45.3712  VDWAALS    =        52.6340
 EELEC  =       159.5135  EGB     =       120.1976  RESTRAINT  =         0.0000
 RM1ESCF=         6.8129
 CMAP   =         8.1118
 ------------------------------------------------------------------------------
