-------------------------------------------------------
          Amber 18 SANDER                              2018
          -------------------------------------------------------

  [-O]verwriting output

File Assignments:

 Here is the input file:

MD with GB7
 &cntrl
  nstlim = 10000, dt = 0.002,
  ntwr = 5000, ntwx = 500,
  ntc = 2, ntf = 2,
  ntt = 3, temp0 = 300, gamma_ln = 1.0,
  ntb = 0, igb = 7, cut = 9999.0,
  ifqnt = 1,
 /

 &qmmm
  qmmask = ':305', qmcharge = 0,
  qm_theory = 'RM1', qmcut = 20.0,
 /

--------------------------------------------------------------------------------
   1.  RESOURCE   USE:
--------------------------------------------------------------------------------

 NATOM  =    4676 NTYPES =      23 NBONH =    2309 MBONA  =    2421
 NTHETH =    5217 MTHETA =    3291 NPHIH =   10763 MPHIA  =   10495
 NHPARM =       0 NPARM  =       0 NNB   =   25729 NRES   =     305
 NBONA  =    2421 NTHETA =    3291 NPHIA =   10495 NUMBND =      88
 NUMANG =     200 NPTRA  =     207 NATYP =      46 NPHB   =       0
 IFBOX  =       0 NMXRS  =      30 IFCAP =       0 NEXTRA =       0
 NCOPY  =       0

 Implicit solvent radii are ArgH and AspGluO modified Bondi2 radii (mbondi3)
 Replacing prmtop screening parameters with GBn (igb=7) values

LOADING THE QUANTUM ATOMS AS GROUPS
     Mask :305; matches    30 atoms

--------------------------------------------------------------------------------
   2.  CONTROL  DATA  FOR  THE  RUN
--------------------------------------------------------------------------------

default_name

General flags:
     imin    =       0, nmropt  =       0

Nature and format of input:
     ntx     =       1, irest   =       0, ntrx    =       1

Nature and format of output:
     ntxo    =       2, ntpr    =      50, ntrx    =       1, ntwr    =    5000
     iwrap   =       0, ntwx    =     500, ntwv    =       0, ntwe    =       0
     ioutfm  =       1, ntwprt  =       0, idecomp =       0, rbornstat=      0

Potential function:
     ntf     =       2, ntb     =       0, igb     =       7, nsnb    =      25
     ipol    =       0, gbsa    =       0, iesp    =       0
     dielc   =   1.00000, cut     =9999.00000, intdiel =   1.00000
     saltcon =   0.00000, offset  =   0.09000, gbalpha=    1.09511
     gbbeta  =   1.90793, gbgamma =   2.50798, surften =   0.00500
     rdt     =   0.00000, rgbmax  =  25.00000  extdiel =  78.50000
     alpb  =        0

Frozen or restrained atoms:
     ibelly  =       0, ntr     =       0

Molecular dynamics:
     nstlim  =     10000, nscm    =      1000, nrespa  =         1
     t       =   0.00000, dt      =   0.00200, vlimit  =  20.00000

Langevin dynamics temperature regulation:
     ig      =   71277
     temp0   = 300.00000, tempi   =   0.00000, gamma_ln=   1.00000

SHAKE:
     ntc     =       2, jfastw  =       0
     tol     =   0.00001

QMMM options:
             ifqnt = True       nquant =       30
              qmgb =        2  qmcharge =        0   adjust_q =        2
              spin =        1     qmcut =  20.0000    qmshake =        1
          qmmm_int =        1
     lnk_atomic_no =        1   lnk_dis =   1.0900 lnk_method =        1
          qm_theory =     RM1 verbosity =        0
            qmqmdx = Analytical
      tight_p_conv = False (converge density to 0.05xSqrt[SCFCRT])
           scfconv = 0.100E-07  itrmax =     1000
      printcharges = False      printdipole = False      peptide_corr = False
    qmmmrij_incore = True
  qmqm_erep_incore = True
       pseudo_diag = True pseudo_diag_criteria =   0.0500
      diag_routine =        0
          qm_ewald =        0 qm_pme = False

--------------------------------------------------------------------------------
   3.  ATOMIC COORDINATES AND VELOCITIES
--------------------------------------------------------------------------------

default_name
 begin time read from input coords =     0.000 ps

 Number of triangulated 3-point waters found:        0
QMMM: ADJUSTING CHARGES
QMMM: ----------------------------------------------------------------------
QMMM: adjust_q = 2
QMMM: Uniformly adjusting the charge of MM atoms to conserve total charge.
QMMM:                             qm_charge =    0
QMMM: QM atom RESP charge sum (inc MM link) =   -0.000
QMMM: Adjusting each MM atom resp charge by =   -0.000
QMMM:          Sum of MM + QM region is now =   -3.000
QMMM: ----------------------------------------------------------------------

QMMM: Link Atom Information
QMMM: ------------------------------------------------------------------------
QMMM: nlink =     0
QMMM: ------------------------------------------------------------------------

  QMMM: QM Region Cartesian Coordinates (*=link atom)
  QMMM: QM_NO.   MM_NO.  ATOM         X         Y         Z
  QMMM:     1     4647      O        8.8491    0.8665   20.7183
  QMMM:     2     4648      C        8.3557   -0.0943   21.3335
  QMMM:     3     4649      N        9.0637   -0.8090   22.2965
  QMMM:     4     4650      C       10.3571   -0.3277   22.6472
  QMMM:     5     4651      C       10.4482    0.7785   23.4984
  QMMM:     6     4652      C       11.7035    1.2980   23.7940
  QMMM:     7     4653      C       12.8455    0.7124   23.2603
  QMMM:     8     4654      C       12.7405   -0.4107   22.4516
  QMMM:     9     4655      C       11.4980   -0.9423   22.1313
  QMMM:    10     4656      N        7.0218   -0.4853   21.1123
  QMMM:    11     4657      C        6.3459    0.0997   20.0228
  QMMM:    12     4658      C        5.1488    0.8159   20.2146
  QMMM:    13     4659      C        4.5458    1.4320   19.0870
  QMMM:    14     4660      C        5.1219    1.2930   17.7978
  QMMM:    15     4661      N        6.2345    0.5867   17.6366
  QMMM:    16     4662      C        6.8358    0.0078   18.7279
  QMMM:    17     4663      H        8.7510   -1.6990   22.6753
  QMMM:    18     4664      H        9.5500    1.2425   23.9171
  QMMM:    19     4665      H       11.7806    2.1802   24.4379
  QMMM:    20     4666      H       13.8277    1.1552   23.4529
  QMMM:    21     4667      H       13.6435   -0.8747   22.0469
  QMMM:    22     4668      H       11.4170   -1.8107   21.4725
  QMMM:    23     4669      H        6.4831   -1.0244   21.7843
  QMMM:    24     4670      N        3.3914    2.0555   19.5490
  QMMM:    25     4671      H        4.6950    1.7898   16.9230
  QMMM:    26     4672      H        7.7619   -0.5401   18.4880
  QMMM:    27     4673      C        4.3038    1.1346   21.3265
  QMMM:    28     4674      N        3.2702    1.8936   20.8953
  QMMM:    29     4675      H        2.8292    2.7469   19.0629
  QMMM:    30     4676      H        4.4339    0.8472   22.3769

--------------------------------------------------------------------------------
  3.1 QM CALCULATION INFO
--------------------------------------------------------------------------------

QMMM: SINGLET STATE CALCULATION
QMMM: RHF CALCULATION, NO. OF DOUBLY OCCUPIED LEVELS = 47

--------------------------------------------------------------------------------
   4.  RESULTS
 NSTEP =        0   TIME(PS) =       0.000  TEMP(K) =     0.00  PRESS =     0.0
 Etot   =    -11895.7720  EKtot   =         0.0000  EPtot      =    -11895.7720
 BOND   =       142.0347  ANGLE   =       552.3739  DIHED      =      1199.8298
 1-4 NB =       955.7042  1-4 EEL =     12147.0422  VDWAALS    =     -2643.8567
 EELEC  =    -21587.4677  EGB     =     -2921.4308  RESTRAINT  =         0.0000
 RM1ESCF=        37.0701
 CMAP   =       222.9284
 ------------------------------------------------------------------------------

      A V E R A G E S   O V E R   10000 S T E P S

 NSTEP =    10000   TIME(PS) =      20.000  TEMP(K) =   284.50  PRESS =     0.0
 Etot   =     -5162.6756  EKtot   =      3312.6712  EPtot      =     -8475.3469
 BOND   =       882.2768  ANGLE   =      2278.5669  DIHED      =      1658.7970
 1-4 NB =      1043.4870  1-4 EEL =     12019.9889  VDWAALS    =     -2367.5944
 EELEC  =    -20952.7671  EGB     =     -3323.5031  RESTRAINT  =         0.0000
 RM1ESCF=        62.0721
 CMAP   =       223.3291
 ------------------------------------------------------------------------------

      R M S  F L U C T U A T I O N S

 NSTEP =    10000   TIME(PS) =      20.000  TEMP(K) =    44.52  PRESS =     0.0
 Etot   =      1068.0545  EKtot   =       518.3666  EPtot      =       551.7338
 BOND   =       119.4517  ANGLE   =       274.4556  DIHED      =        77.3098
 1-4 NB =        19.8348  1-4 EEL =        40.5302  VDWAALS    =        55.6673
 EELEC  =       136.9526  EGB     =       105.7568  RESTRAINT  =         0.0000
 RM1ESCF=         6.1623
 CMAP   =         8.4452
 ------------------------------------------------------------------------------
