-------------------------------------------------------
          Amber 18 SANDER                              2018
          -------------------------------------------------------

  [-O]verwriting output

File Assignments:

 Here is the input file:

MD with GB7
 &cntrl
  nstlim = 10000, dt = 0.002,
  ntwr = 5000, ntwx = 500,
  ntc = 2, ntf = 2,
  ntt = 3, temp0 = 300, gamma_ln = 1.0,
  ntb = 0, igb = 7, cut = 9999.0,
  ifqnt = 1,
 /

 &qmmm
  qmmask = ':305', qmcharge = 0,
  qm_theory = 'RM1', qmcut = 20.0,
 /

--------------------------------------------------------------------------------
   1.  RESOURCE   USE:
--------------------------------------------------------------------------------

 NATOM  =    4688 NTYPES =      26 NBONH =    2321 MBONA  =    2420
 NTHETH =    5248 MTHETA =    3289 NPHIH =   10804 MPHIA  =   10505
 NHPARM =       0 NPARM  =       0 NNB   =   25814 NRES   =     305
 NBONA  =    2420 NTHETA =    3289 NPHIA =   10505 NUMBND =      88
 NUMANG =     202 NPTRA  =     220 NATYP =      47 NPHB   =       0
 IFBOX  =       0 NMXRS  =      42 IFCAP =       0 NEXTRA =       0
 NCOPY  =       0

 Implicit solvent radii are ArgH and AspGluO modified Bondi2 radii (mbondi3)
 Replacing prmtop screening parameters with GBn (igb=7) values

LOADING THE QUANTUM ATOMS AS GROUPS
     Mask :305; matches    42 atoms

--------------------------------------------------------------------------------
   2.  CONTROL  DATA  FOR  THE  RUN
--------------------------------------------------------------------------------

default_name

General flags:
     imin    =       0, nmropt  =       0

Nature and format of input:
     ntx     =       1, irest   =       0, ntrx    =       1

Nature and format of output:
     ntxo    =       2, ntpr    =      50, ntrx    =       1, ntwr    =    5000
     iwrap   =       0, ntwx    =     500, ntwv    =       0, ntwe    =       0
     ioutfm  =       1, ntwprt  =       0, idecomp =       0, rbornstat=      0

Potential function:
     ntf     =       2, ntb     =       0, igb     =       7, nsnb    =      25
     ipol    =       0, gbsa    =       0, iesp    =       0
     dielc   =   1.00000, cut     =9999.00000, intdiel =   1.00000
     saltcon =   0.00000, offset  =   0.09000, gbalpha=    1.09511
     gbbeta  =   1.90793, gbgamma =   2.50798, surften =   0.00500
     rdt     =   0.00000, rgbmax  =  25.00000  extdiel =  78.50000
     alpb  =        0

Frozen or restrained atoms:
     ibelly  =       0, ntr     =       0

Molecular dynamics:
     nstlim  =     10000, nscm    =      1000, nrespa  =         1
     t       =   0.00000, dt      =   0.00200, vlimit  =  20.00000

Langevin dynamics temperature regulation:
     ig      =   71277
     temp0   = 300.00000, tempi   =   0.00000, gamma_ln=   1.00000

SHAKE:
     ntc     =       2, jfastw  =       0
     tol     =   0.00001

QMMM options:
             ifqnt = True       nquant =       42
              qmgb =        2  qmcharge =        0   adjust_q =        2
              spin =        1     qmcut =  20.0000    qmshake =        1
          qmmm_int =        1
     lnk_atomic_no =        1   lnk_dis =   1.0900 lnk_method =        1
          qm_theory =     RM1 verbosity =        0
            qmqmdx = Analytical
      tight_p_conv = False (converge density to 0.05xSqrt[SCFCRT])
           scfconv = 0.100E-07  itrmax =     1000
      printcharges = False      printdipole = False      peptide_corr = False
    qmmmrij_incore = True
  qmqm_erep_incore = True
       pseudo_diag = True pseudo_diag_criteria =   0.0500
      diag_routine =        0
          qm_ewald =        0 qm_pme = False

--------------------------------------------------------------------------------
   3.  ATOMIC COORDINATES AND VELOCITIES
--------------------------------------------------------------------------------

default_name
 begin time read from input coords =     0.000 ps

 Number of triangulated 3-point waters found:        0
QMMM: ADJUSTING CHARGES
QMMM: ----------------------------------------------------------------------
QMMM: adjust_q = 2
QMMM: Uniformly adjusting the charge of MM atoms to conserve total charge.
QMMM:                             qm_charge =    0
QMMM: QM atom RESP charge sum (inc MM link) =   -0.001
QMMM: Adjusting each MM atom resp charge by =   -0.000
QMMM:          Sum of MM + QM region is now =   -3.001
QMMM: ----------------------------------------------------------------------

QMMM: Link Atom Information
QMMM: ------------------------------------------------------------------------
QMMM: nlink =     0
QMMM: ------------------------------------------------------------------------

  QMMM: QM Region Cartesian Coordinates (*=link atom)
  QMMM: QM_NO.   MM_NO.  ATOM         X         Y         Z
  QMMM:     1     4647      O        9.2228    1.2372   20.9986
  QMMM:     2     4648      C        8.7432    0.4053   21.7712
  QMMM:     3     4649      C        9.3815   -0.0178   23.0789
  QMMM:     4     4650      C       10.9083   -0.0323   22.9667
  QMMM:     5     4651      C       11.3665   -1.1377   22.0112
  QMMM:     6     4652      C       12.5767   -1.9053   22.5327
  QMMM:     7     4653      C       13.6112   -1.0022   23.1856
  QMMM:     8     4654      C       13.0216   -0.1095   24.2746
  QMMM:     9     4655      C       11.5057   -0.2301   24.3602
  QMMM:    10     4656      N        7.4956   -0.1476   21.5010
  QMMM:    11     4657      C        6.7176    0.3081   20.4054
  QMMM:    12     4658      C        5.4780    0.9138   20.6654
  QMMM:    13     4659      C        4.7231    1.3754   19.5916
  QMMM:    14     4660      C        5.2376    1.1791   18.2878
  QMMM:    15     4661      N        6.4251    0.5901   18.0321
  QMMM:    16     4662      C        7.1599    0.1671   19.0789
  QMMM:    17     4663      H        9.0194   -1.0093   23.4376
  QMMM:    18     4664      H        9.0452    0.7051   23.8578
  QMMM:    19     4665      H       11.2594    0.9565   22.5760
  QMMM:    20     4666      H       10.5517   -1.8626   21.7938
  QMMM:    21     4667      H       11.5756   -0.6996   21.0161
  QMMM:    22     4668      H       13.0526   -2.4618   21.6987
  QMMM:    23     4669      H       12.2542   -2.6932   23.2465
  QMMM:    24     4670      H       14.4285   -1.6294   23.6043
  QMMM:    25     4671      H       14.1036   -0.3830   22.4104
  QMMM:    26     4672      H       13.4812   -0.3554   25.2540
  QMMM:    27     4673      H       13.3040    0.9507   24.0915
  QMMM:    28     4674      H       11.1024    0.5164   25.0760
  QMMM:    29     4675      H       11.2000   -1.2092   24.7816
  QMMM:    30     4676      H        7.0490   -0.8081   22.1331
  QMMM:    31     4677      H        5.1487    1.0121   21.7092
  QMMM:    32     4678      N        3.4181    1.9155   19.7529
  QMMM:    33     4679      H        4.6940    1.5204   17.3959
  QMMM:    34     4680      H        8.1197   -0.3115   18.8340
  QMMM:    35     4681      C        2.9507    2.1331   21.1467
  QMMM:    36     4682      C        3.1506    3.1169   18.9225
  QMMM:    37     4683      H        1.9127    2.5143   21.1314
  QMMM:    38     4684      H        2.9378    1.1784   21.7003
  QMMM:    39     4685      H        3.5436    2.8566   21.7367
  QMMM:    40     4686      H        3.6125    3.0501   17.9224
  QMMM:    41     4687      H        2.0613    3.2211   18.7647
  QMMM:    42     4688      H        3.5143    4.0590   19.3678

--------------------------------------------------------------------------------
  3.1 QM CALCULATION INFO
--------------------------------------------------------------------------------

QMMM: SINGLET STATE CALCULATION
QMMM: RHF CALCULATION, NO. OF DOUBLY OCCUPIED LEVELS = 52

--------------------------------------------------------------------------------
   4.  RESULTS
 NSTEP =        0   TIME(PS) =       0.000  TEMP(K) =     0.00  PRESS =     0.0
 Etot   =    -11986.1295  EKtot   =         0.0000  EPtot      =    -11986.1295
 BOND   =       144.1365  ANGLE   =       552.6096  DIHED      =      1201.4891
 1-4 NB =       948.0435  1-4 EEL =     12147.6453  VDWAALS    =     -2644.2208
 EELEC  =    -21564.5587  EGB     =     -2934.9419  RESTRAINT  =         0.0000
 RM1ESCF=       -55.8357
 CMAP   =       219.5036
 ------------------------------------------------------------------------------

      A V E R A G E S   O V E R   10000 S T E P S

 NSTEP =    10000   TIME(PS) =      20.000  TEMP(K) =   285.35  PRESS =     0.0
 Etot   =     -5214.3105  EKtot   =      3329.3668  EPtot      =     -8543.6773
 BOND   =       884.0483  ANGLE   =      2279.0268  DIHED      =      1660.8226
 1-4 NB =      1046.2862  1-4 EEL =     12025.0159  VDWAALS    =     -2377.7484
 EELEC  =    -20959.7718  EGB     =     -3304.5859  RESTRAINT  =         0.0000
 RM1ESCF=       -19.0024
 CMAP   =       222.2315
 ------------------------------------------------------------------------------

      R M S  F L U C T U A T I O N S

 NSTEP =    10000   TIME(PS) =      20.000  TEMP(K) =    44.15  PRESS =     0.0
 Etot   =      1062.8852  EKtot   =       515.1816  EPtot      =       549.7140
 BOND   =       118.5447  ANGLE   =       270.5908  DIHED      =        79.5876
 1-4 NB =        20.4892  1-4 EEL =        42.2022  VDWAALS    =        54.0105
 EELEC  =       143.6235  EGB     =       111.6534  RESTRAINT  =         0.0000
 RM1ESCF=         8.1474
 CMAP   =         7.6762
 ------------------------------------------------------------------------------
