-------------------------------------------------------
          Amber 18 SANDER                              2018
          -------------------------------------------------------

  [-O]verwriting output

File Assignments:

 Here is the input file:

MD with GB7
 &cntrl
  nstlim = 10000, dt = 0.002,
  ntwr = 5000, ntwx = 500,
  ntc = 2, ntf = 2,
  ntt = 3, temp0 = 300, gamma_ln = 1.0,
  ntb = 0, igb = 7, cut = 9999.0,
  ifqnt = 1,
 /

 &qmmm
  qmmask = ':305', qmcharge = 0,
  qm_theory = 'RM1', qmcut = 20.0,
 /

--------------------------------------------------------------------------------
   1.  RESOURCE   USE:
--------------------------------------------------------------------------------

 NATOM  =    4685 NTYPES =      26 NBONH =    2319 MBONA  =    2419
 NTHETH =    5244 MTHETA =    3287 NPHIH =   10801 MPHIA  =   10502
 NHPARM =       0 NPARM  =       0 NNB   =   25798 NRES   =     305
 NBONA  =    2419 NTHETA =    3287 NPHIA =   10502 NUMBND =      89
 NUMANG =     203 NPTRA  =     221 NATYP =      47 NPHB   =       0
 IFBOX  =       0 NMXRS  =      39 IFCAP =       0 NEXTRA =       0
 NCOPY  =       0

 Implicit solvent radii are ArgH and AspGluO modified Bondi2 radii (mbondi3)
 Replacing prmtop screening parameters with GBn (igb=7) values

LOADING THE QUANTUM ATOMS AS GROUPS
     Mask :305; matches    39 atoms

--------------------------------------------------------------------------------
   2.  CONTROL  DATA  FOR  THE  RUN
--------------------------------------------------------------------------------

default_name

General flags:
     imin    =       0, nmropt  =       0

Nature and format of input:
     ntx     =       1, irest   =       0, ntrx    =       1

Nature and format of output:
     ntxo    =       2, ntpr    =      50, ntrx    =       1, ntwr    =    5000
     iwrap   =       0, ntwx    =     500, ntwv    =       0, ntwe    =       0
     ioutfm  =       1, ntwprt  =       0, idecomp =       0, rbornstat=      0

Potential function:
     ntf     =       2, ntb     =       0, igb     =       7, nsnb    =      25
     ipol    =       0, gbsa    =       0, iesp    =       0
     dielc   =   1.00000, cut     =9999.00000, intdiel =   1.00000
     saltcon =   0.00000, offset  =   0.09000, gbalpha=    1.09511
     gbbeta  =   1.90793, gbgamma =   2.50798, surften =   0.00500
     rdt     =   0.00000, rgbmax  =  25.00000  extdiel =  78.50000
     alpb  =        0

Frozen or restrained atoms:
     ibelly  =       0, ntr     =       0

Molecular dynamics:
     nstlim  =     10000, nscm    =      1000, nrespa  =         1
     t       =   0.00000, dt      =   0.00200, vlimit  =  20.00000

Langevin dynamics temperature regulation:
     ig      =   71277
     temp0   = 300.00000, tempi   =   0.00000, gamma_ln=   1.00000

SHAKE:
     ntc     =       2, jfastw  =       0
     tol     =   0.00001

QMMM options:
             ifqnt = True       nquant =       39
              qmgb =        2  qmcharge =        0   adjust_q =        2
              spin =        1     qmcut =  20.0000    qmshake =        1
          qmmm_int =        1
     lnk_atomic_no =        1   lnk_dis =   1.0900 lnk_method =        1
          qm_theory =     RM1 verbosity =        0
            qmqmdx = Analytical
      tight_p_conv = False (converge density to 0.05xSqrt[SCFCRT])
           scfconv = 0.100E-07  itrmax =     1000
      printcharges = False      printdipole = False      peptide_corr = False
    qmmmrij_incore = True
  qmqm_erep_incore = True
       pseudo_diag = True pseudo_diag_criteria =   0.0500
      diag_routine =        0
          qm_ewald =        0 qm_pme = False

--------------------------------------------------------------------------------
   3.  ATOMIC COORDINATES AND VELOCITIES
--------------------------------------------------------------------------------

default_name
 begin time read from input coords =     0.000 ps

 Number of triangulated 3-point waters found:        0
QMMM: ADJUSTING CHARGES
QMMM: ----------------------------------------------------------------------
QMMM: adjust_q = 2
QMMM: Uniformly adjusting the charge of MM atoms to conserve total charge.
QMMM:                             qm_charge =    0
QMMM: QM atom RESP charge sum (inc MM link) =   -0.001
QMMM: Adjusting each MM atom resp charge by =   -0.000
QMMM:          Sum of MM + QM region is now =   -3.001
QMMM: ----------------------------------------------------------------------

QMMM: Link Atom Information
QMMM: ------------------------------------------------------------------------
QMMM: nlink =     0
QMMM: ------------------------------------------------------------------------

  QMMM: QM Region Cartesian Coordinates (*=link atom)
  QMMM: QM_NO.   MM_NO.  ATOM         X         Y         Z
  QMMM:     1     4647      O        9.3120    1.2041   21.0101
  QMMM:     2     4648      C        8.7469    0.4730   21.8294
  QMMM:     3     4649      C        9.3557    0.0358   23.1425
  QMMM:     4     4650      C       10.8822    0.0054   23.0463
  QMMM:     5     4651      C       11.3302   -1.0595   22.0391
  QMMM:     6     4652      C       12.5380   -1.8575   22.5177
  QMMM:     7     4653      C       13.5789   -0.9927   23.2066
  QMMM:     8     4654      C       12.9944   -0.1460   24.3337
  QMMM:     9     4655      C       11.4798   -0.2655   24.4266
  QMMM:    10     4656      N        7.4385    0.0564   21.5930
  QMMM:    11     4657      C        6.7689    0.4128   20.3982
  QMMM:    12     4658      C        5.5270    1.0434   20.4711
  QMMM:    13     4659      C        4.8925    1.4072   19.2761
  QMMM:    14     4660      C        5.5430    1.0895   18.0559
  QMMM:    15     4661      N        6.7353    0.4725   17.9912
  QMMM:    16     4662      C        7.3451    0.1369   19.1439
  QMMM:    17     4663      H        8.9732   -0.9557   23.4757
  QMMM:    18     4664      H        9.0181    0.7533   23.9252
  QMMM:    19     4665      H       11.2455    1.0083   22.7036
  QMMM:    20     4666      H       10.5118   -1.7692   21.7939
  QMMM:    21     4667      H       11.5357   -0.5728   21.0674
  QMMM:    22     4668      H       13.0044   -2.3788   21.6555
  QMMM:    23     4669      H       12.2144   -2.6747   23.1974
  QMMM:    24     4670      H       14.3917   -1.6421   23.5974
  QMMM:    25     4671      H       14.0805   -0.3436   22.4620
  QMMM:    26     4672      H       13.4660   -0.4262   25.2975
  QMMM:    27     4673      H       13.2752    0.9200   24.1898
  QMMM:    28     4674      H       11.0813    0.4478   25.1784
  QMMM:    29     4675      H       11.1719   -1.2625   24.8031
  QMMM:    30     4676      H        6.8942   -0.4326   22.3070
  QMMM:    31     4677      H        5.0753    1.2467   21.4501
  QMMM:    32     4678      N        3.6301    1.9886   19.2415
  QMMM:    33     4679      H        5.1131    1.3617   17.0857
  QMMM:    34     4680      H        8.3142   -0.3720   19.0411
  QMMM:    35     4681      C        3.0761    2.5895   20.4579
  QMMM:    36     4682      H        3.3886    2.4542   18.3641
  QMMM:    37     4683      H        2.1460    3.1351   20.2150
  QMMM:    38     4684      H        2.8294    1.8108   21.2051
  QMMM:    39     4685      H        3.7441    3.3219   20.9480

--------------------------------------------------------------------------------
  3.1 QM CALCULATION INFO
--------------------------------------------------------------------------------

QMMM: SINGLET STATE CALCULATION
QMMM: RHF CALCULATION, NO. OF DOUBLY OCCUPIED LEVELS = 49

--------------------------------------------------------------------------------
   4.  RESULTS
 NSTEP =        0   TIME(PS) =       0.000  TEMP(K) =     0.00  PRESS =     0.0
 Etot   =    -11993.0542  EKtot   =         0.0000  EPtot      =    -11993.0542
 BOND   =       141.7867  ANGLE   =       550.0828  DIHED      =      1201.3696
 1-4 NB =       951.9377  1-4 EEL =     12148.8185  VDWAALS    =     -2639.4770
 EELEC  =    -21569.8799  EGB     =     -2933.1908  RESTRAINT  =         0.0000
 RM1ESCF=       -65.5052
 CMAP   =       221.0031
 ------------------------------------------------------------------------------

      A V E R A G E S   O V E R   10000 S T E P S

 NSTEP =    10000   TIME(PS) =      20.000  TEMP(K) =   284.98  PRESS =     0.0
 Etot   =     -5226.5794  EKtot   =      3323.0790  EPtot      =     -8549.6584
 BOND   =       882.3426  ANGLE   =      2281.7477  DIHED      =      1655.7115
 1-4 NB =      1043.4465  1-4 EEL =     12009.3186  VDWAALS    =     -2375.0346
 EELEC  =    -20912.1802  EGB     =     -3326.2453  RESTRAINT  =         0.0000
 RM1ESCF=       -30.8835
 CMAP   =       222.1183
 ------------------------------------------------------------------------------

      R M S  F L U C T U A T I O N S

 NSTEP =    10000   TIME(PS) =      20.000  TEMP(K) =    44.75  PRESS =     0.0
 Etot   =      1079.1540  EKtot   =       521.7893  EPtot      =       559.3341
 BOND   =       120.0244  ANGLE   =       277.5516  DIHED      =        77.1404
 1-4 NB =        20.1009  1-4 EEL =        44.8059  VDWAALS    =        53.1648
 EELEC  =       146.0512  EGB     =       102.8348  RESTRAINT  =         0.0000
 RM1ESCF=         7.8338
 CMAP   =         7.8777
 ------------------------------------------------------------------------------
