-------------------------------------------------------
          Amber 18 SANDER                              2018
          -------------------------------------------------------

  [-O]verwriting output

File Assignments:

 Here is the input file:

MD with GB7
 &cntrl
  nstlim = 10000, dt = 0.002,
  ntwr = 5000, ntwx = 500,
  ntc = 2, ntf = 2,
  ntt = 3, temp0 = 300, gamma_ln = 1.0,
  ntb = 0, igb = 7, cut = 9999.0,
  ifqnt = 1,
 /

 &qmmm
  qmmask = ':305', qmcharge = 0,
  qm_theory = 'RM1', qmcut = 20.0,
 /

--------------------------------------------------------------------------------
   1.  RESOURCE   USE:
--------------------------------------------------------------------------------

 NATOM  =    4676 NTYPES =      24 NBONH =    2309 MBONA  =    2421
 NTHETH =    5217 MTHETA =    3291 NPHIH =   10763 MPHIA  =   10495
 NHPARM =       0 NPARM  =       0 NNB   =   25728 NRES   =     305
 NBONA  =    2421 NTHETA =    3291 NPHIA =   10495 NUMBND =      92
 NUMANG =     210 NPTRA  =     208 NATYP =      48 NPHB   =       0
 IFBOX  =       0 NMXRS  =      30 IFCAP =       0 NEXTRA =       0
 NCOPY  =       0

 Implicit solvent radii are ArgH and AspGluO modified Bondi2 radii (mbondi3)
 Replacing prmtop screening parameters with GBn (igb=7) values

LOADING THE QUANTUM ATOMS AS GROUPS
     Mask :305; matches    30 atoms

--------------------------------------------------------------------------------
   2.  CONTROL  DATA  FOR  THE  RUN
--------------------------------------------------------------------------------

default_name

General flags:
     imin    =       0, nmropt  =       0

Nature and format of input:
     ntx     =       1, irest   =       0, ntrx    =       1

Nature and format of output:
     ntxo    =       2, ntpr    =      50, ntrx    =       1, ntwr    =    5000
     iwrap   =       0, ntwx    =     500, ntwv    =       0, ntwe    =       0
     ioutfm  =       1, ntwprt  =       0, idecomp =       0, rbornstat=      0

Potential function:
     ntf     =       2, ntb     =       0, igb     =       7, nsnb    =      25
     ipol    =       0, gbsa    =       0, iesp    =       0
     dielc   =   1.00000, cut     =9999.00000, intdiel =   1.00000
     saltcon =   0.00000, offset  =   0.09000, gbalpha=    1.09511
     gbbeta  =   1.90793, gbgamma =   2.50798, surften =   0.00500
     rdt     =   0.00000, rgbmax  =  25.00000  extdiel =  78.50000
     alpb  =        0

Frozen or restrained atoms:
     ibelly  =       0, ntr     =       0

Molecular dynamics:
     nstlim  =     10000, nscm    =      1000, nrespa  =         1
     t       =   0.00000, dt      =   0.00200, vlimit  =  20.00000

Langevin dynamics temperature regulation:
     ig      =   71277
     temp0   = 300.00000, tempi   =   0.00000, gamma_ln=   1.00000

SHAKE:
     ntc     =       2, jfastw  =       0
     tol     =   0.00001

QMMM options:
             ifqnt = True       nquant =       30
              qmgb =        2  qmcharge =        0   adjust_q =        2
              spin =        1     qmcut =  20.0000    qmshake =        1
          qmmm_int =        1
     lnk_atomic_no =        1   lnk_dis =   1.0900 lnk_method =        1
          qm_theory =     RM1 verbosity =        0
            qmqmdx = Analytical
      tight_p_conv = False (converge density to 0.05xSqrt[SCFCRT])
           scfconv = 0.100E-07  itrmax =     1000
      printcharges = False      printdipole = False      peptide_corr = False
    qmmmrij_incore = True
  qmqm_erep_incore = True
       pseudo_diag = True pseudo_diag_criteria =   0.0500
      diag_routine =        0
          qm_ewald =        0 qm_pme = False

--------------------------------------------------------------------------------
   3.  ATOMIC COORDINATES AND VELOCITIES
--------------------------------------------------------------------------------

default_name
 begin time read from input coords =     0.000 ps

 Number of triangulated 3-point waters found:        0
QMMM: ADJUSTING CHARGES
QMMM: ----------------------------------------------------------------------
QMMM: adjust_q = 2
QMMM: Uniformly adjusting the charge of MM atoms to conserve total charge.
QMMM:                             qm_charge =    0
QMMM: QM atom RESP charge sum (inc MM link) =    0.000
QMMM: Adjusting each MM atom resp charge by =    0.000
QMMM:          Sum of MM + QM region is now =   -3.000
QMMM: ----------------------------------------------------------------------

QMMM: Link Atom Information
QMMM: ------------------------------------------------------------------------
QMMM: nlink =     0
QMMM: ------------------------------------------------------------------------

  QMMM: QM Region Cartesian Coordinates (*=link atom)
  QMMM: QM_NO.   MM_NO.  ATOM         X         Y         Z
  QMMM:     1     4647      O        8.8140    0.9618   20.6862
  QMMM:     2     4648      C        8.3600   -0.0037   21.3135
  QMMM:     3     4649      N        9.1048   -0.7159   22.2481
  QMMM:     4     4650      C       10.4182   -0.2448   22.5615
  QMMM:     5     4651      C       10.5495    0.9248   23.3191
  QMMM:     6     4652      C       11.8157    1.3965   23.6129
  QMMM:     7     4653      C       12.9414    0.7182   23.1589
  QMMM:     8     4654      C       12.7955   -0.4622   22.4285
  QMMM:     9     4655      C       11.5390   -0.9490   22.1191
  QMMM:    10     4656      N        7.0294   -0.4275   21.1222
  QMMM:    11     4657      C        6.3141    0.1202   20.0379
  QMMM:    12     4658      C        5.0889    0.8064   20.3073
  QMMM:    13     4659      N        4.3875    1.3523   19.1977
  QMMM:    14     4660      C        4.9204    1.2477   17.8960
  QMMM:    15     4661      N        6.0503    0.6040   17.6754
  QMMM:    16     4662      C        6.7489    0.0402   18.7367
  QMMM:    17     4663      H        8.7932   -1.5954   22.6551
  QMMM:    18     4664      H        9.6627    1.4657   23.6720
  QMMM:    19     4665      H       11.9244    2.3182   24.1969
  QMMM:    20     4666      H       13.9343    1.1251   23.3410
  QMMM:    21     4667      H       13.6855   -0.9963   22.0824
  QMMM:    22     4668      H       11.4288   -1.8666   21.5241
  QMMM:    23     4669      H        6.5113   -0.9670   21.8173
  QMMM:    24     4670      N        3.2479    1.9958   19.6068
  QMMM:    25     4671      H        4.3804    1.7421   17.0684
  QMMM:    26     4672      H        7.6837   -0.4655   18.4436
  QMMM:    27     4673      C        4.3477    1.1174   21.4370
  QMMM:    28     4674      H        4.5718    0.8735   22.4706
  QMMM:    29     4675      C        3.2211    1.8564   20.9626
  QMMM:    30     4676      H        2.4067    2.2841   21.5588

--------------------------------------------------------------------------------
  3.1 QM CALCULATION INFO
--------------------------------------------------------------------------------

QMMM: SINGLET STATE CALCULATION
QMMM: RHF CALCULATION, NO. OF DOUBLY OCCUPIED LEVELS = 47

--------------------------------------------------------------------------------
   4.  RESULTS
 NSTEP =        0   TIME(PS) =       0.000  TEMP(K) =     0.00  PRESS =     0.0
 Etot   =    -11909.7137  EKtot   =         0.0000  EPtot      =    -11909.7137
 BOND   =       144.0672  ANGLE   =       554.0942  DIHED      =      1193.8785
 1-4 NB =       950.5442  1-4 EEL =     12130.7505  VDWAALS    =     -2644.6752
 EELEC  =    -21568.9399  EGB     =     -2945.9985  RESTRAINT  =         0.0000
 RM1ESCF=        57.7283
 CMAP   =       218.8370
 ------------------------------------------------------------------------------

      A V E R A G E S   O V E R   10000 S T E P S

 NSTEP =    10000   TIME(PS) =      20.000  TEMP(K) =   284.36  PRESS =     0.0
 Etot   =     -5146.0995  EKtot   =      3311.1098  EPtot      =     -8457.2094
 BOND   =       884.6262  ANGLE   =      2274.3143  DIHED      =      1659.2706
 1-4 NB =      1042.7305  1-4 EEL =     12009.4594  VDWAALS    =     -2364.0061
 EELEC  =    -20974.2439  EGB     =     -3290.8625  RESTRAINT  =         0.0000
 RM1ESCF=        80.3982
 CMAP   =       221.1039
 ------------------------------------------------------------------------------

      R M S  F L U C T U A T I O N S

 NSTEP =    10000   TIME(PS) =      20.000  TEMP(K) =    44.66  PRESS =     0.0
 Etot   =      1074.8465  EKtot   =       519.9933  EPtot      =       556.7615
 BOND   =       120.2216  ANGLE   =       273.7571  DIHED      =        77.6790
 1-4 NB =        19.6784  1-4 EEL =        42.7322  VDWAALS    =        56.6356
 EELEC  =       132.1883  EGB     =        92.1748  RESTRAINT  =         0.0000
 RM1ESCF=         5.6470
 CMAP   =         7.7816
 ------------------------------------------------------------------------------
