-------------------------------------------------------
          Amber 18 SANDER                              2018
          -------------------------------------------------------

  [-O]verwriting output

File Assignments:

 Here is the input file:

MD with GB7
 &cntrl
  nstlim = 10000, dt = 0.002,
  ntwr = 5000, ntwx = 500,
  ntc = 2, ntf = 2,
  ntt = 3, temp0 = 300, gamma_ln = 1.0,
  ntb = 0, igb = 7, cut = 9999.0,
  ifqnt = 1,
 /

 &qmmm
  qmmask = ':305', qmcharge = 0,
  qm_theory = 'RM1', qmcut = 20.0,
 /

--------------------------------------------------------------------------------
   1.  RESOURCE   USE:
--------------------------------------------------------------------------------

 NATOM  =    4683 NTYPES =      26 NBONH =    2316 MBONA  =    2421
 NTHETH =    5238 MTHETA =    3291 NPHIH =   10795 MPHIA  =   10510
 NHPARM =       0 NPARM  =       0 NNB   =   25792 NRES   =     305
 NBONA  =    2421 NTHETA =    3291 NPHIA =   10510 NUMBND =      92
 NUMANG =     211 NPTRA  =     219 NATYP =      49 NPHB   =       0
 IFBOX  =       0 NMXRS  =      37 IFCAP =       0 NEXTRA =       0
 NCOPY  =       0

 Implicit solvent radii are ArgH and AspGluO modified Bondi2 radii (mbondi3)
 Replacing prmtop screening parameters with GBn (igb=7) values

LOADING THE QUANTUM ATOMS AS GROUPS
     Mask :305; matches    37 atoms

--------------------------------------------------------------------------------
   2.  CONTROL  DATA  FOR  THE  RUN
--------------------------------------------------------------------------------

default_name

General flags:
     imin    =       0, nmropt  =       0

Nature and format of input:
     ntx     =       1, irest   =       0, ntrx    =       1

Nature and format of output:
     ntxo    =       2, ntpr    =      50, ntrx    =       1, ntwr    =    5000
     iwrap   =       0, ntwx    =     500, ntwv    =       0, ntwe    =       0
     ioutfm  =       1, ntwprt  =       0, idecomp =       0, rbornstat=      0

Potential function:
     ntf     =       2, ntb     =       0, igb     =       7, nsnb    =      25
     ipol    =       0, gbsa    =       0, iesp    =       0
     dielc   =   1.00000, cut     =9999.00000, intdiel =   1.00000
     saltcon =   0.00000, offset  =   0.09000, gbalpha=    1.09511
     gbbeta  =   1.90793, gbgamma =   2.50798, surften =   0.00500
     rdt     =   0.00000, rgbmax  =  25.00000  extdiel =  78.50000
     alpb  =        0

Frozen or restrained atoms:
     ibelly  =       0, ntr     =       0

Molecular dynamics:
     nstlim  =     10000, nscm    =      1000, nrespa  =         1
     t       =   0.00000, dt      =   0.00200, vlimit  =  20.00000

Langevin dynamics temperature regulation:
     ig      =   71277
     temp0   = 300.00000, tempi   =   0.00000, gamma_ln=   1.00000

SHAKE:
     ntc     =       2, jfastw  =       0
     tol     =   0.00001

QMMM options:
             ifqnt = True       nquant =       37
              qmgb =        2  qmcharge =        0   adjust_q =        2
              spin =        1     qmcut =  20.0000    qmshake =        1
          qmmm_int =        1
     lnk_atomic_no =        1   lnk_dis =   1.0900 lnk_method =        1
          qm_theory =     RM1 verbosity =        0
            qmqmdx = Analytical
      tight_p_conv = False (converge density to 0.05xSqrt[SCFCRT])
           scfconv = 0.100E-07  itrmax =     1000
      printcharges = False      printdipole = False      peptide_corr = False
    qmmmrij_incore = True
  qmqm_erep_incore = True
       pseudo_diag = True pseudo_diag_criteria =   0.0500
      diag_routine =        0
          qm_ewald =        0 qm_pme = False

--------------------------------------------------------------------------------
   3.  ATOMIC COORDINATES AND VELOCITIES
--------------------------------------------------------------------------------

default_name
 begin time read from input coords =     0.000 ps

 Number of triangulated 3-point waters found:        0
QMMM: ADJUSTING CHARGES
QMMM: ----------------------------------------------------------------------
QMMM: adjust_q = 2
QMMM: Uniformly adjusting the charge of MM atoms to conserve total charge.
QMMM:                             qm_charge =    0
QMMM: QM atom RESP charge sum (inc MM link) =    0.002
QMMM: Adjusting each MM atom resp charge by =    0.000
QMMM:          Sum of MM + QM region is now =   -2.998
QMMM: ----------------------------------------------------------------------

QMMM: Link Atom Information
QMMM: ------------------------------------------------------------------------
QMMM: nlink =     0
QMMM: ------------------------------------------------------------------------

  QMMM: QM Region Cartesian Coordinates (*=link atom)
  QMMM: QM_NO.   MM_NO.  ATOM         X         Y         Z
  QMMM:     1     4647      O        9.3558    1.2284   20.9592
  QMMM:     2     4648      C        8.7926    0.5454   21.8136
  QMMM:     3     4649      C        9.4033    0.1310   23.1307
  QMMM:     4     4650      C       10.9272    0.0264   23.0151
  QMMM:     5     4651      C       11.3154   -1.0896   22.0419
  QMMM:     6     4652      C       12.5241   -1.8914   22.5138
  QMMM:     7     4653      C       13.5871   -1.0206   23.1631
  QMMM:     8     4654      C       13.0385   -0.1716   24.3069
  QMMM:     9     4655      C       11.5196   -0.2354   24.3995
  QMMM:    10     4656      N        7.4627    0.1582   21.6134
  QMMM:    11     4657      C        6.7756    0.4771   20.4303
  QMMM:    12     4658      C        5.4899    1.0942   20.5578
  QMMM:    13     4659      N        4.7614    1.3540   19.3646
  QMMM:    14     4660      C        5.3290    1.0590   18.1110
  QMMM:    15     4661      N        6.5252    0.5181   18.0141
  QMMM:    16     4662      C        7.2457    0.2158   19.1651
  QMMM:    17     4663      H        8.9833   -0.8290   23.5095
  QMMM:    18     4664      H        9.1122    0.8909   23.8912
  QMMM:    19     4665      H       11.3331    1.0001   22.6379
  QMMM:    20     4666      H       10.4750   -1.7928   21.8576
  QMMM:    21     4667      H       11.4989   -0.6545   21.0407
  QMMM:    22     4668      H       12.9701   -2.4354   21.6557
  QMMM:    23     4669      H       12.2072   -2.6892   23.2188
  QMMM:    24     4670      H       14.4132   -1.6654   23.5313
  QMMM:    25     4671      H       14.0611   -0.3750   22.3983
  QMMM:    26     4672      H       13.4953   -0.4863   25.2676
  QMMM:    27     4673      H       13.3585    0.8844   24.1777
  QMMM:    28     4674      H       11.1473    0.5041   25.1382
  QMMM:    29     4675      H       11.1790   -1.2139   24.7954
  QMMM:    30     4676      H        6.9191   -0.2948   22.3525
  QMMM:    31     4677      C        4.6935    1.5337   21.6082
  QMMM:    32     4678      N        3.5500    1.9312   19.6404
  QMMM:    33     4679      H        4.7506    1.3098   17.2067
  QMMM:    34     4680      H        8.2196   -0.2596   18.9693
  QMMM:    35     4681      C        3.5043    2.0388   20.9996
  QMMM:    36     4682      H        2.6307    2.4687   21.5076
  QMMM:    37     4683      H        4.9067    1.4892   22.6730

--------------------------------------------------------------------------------
  3.1 QM CALCULATION INFO
--------------------------------------------------------------------------------

QMMM: SINGLET STATE CALCULATION
QMMM: RHF CALCULATION, NO. OF DOUBLY OCCUPIED LEVELS = 50

--------------------------------------------------------------------------------
   4.  RESULTS
 NSTEP =        0   TIME(PS) =       0.000  TEMP(K) =     0.00  PRESS =     0.0
 Etot   =    -11955.1736  EKtot   =         0.0000  EPtot      =    -11955.1736
 BOND   =       143.6205  ANGLE   =       552.6867  DIHED      =      1198.7996
 1-4 NB =       948.6450  1-4 EEL =     12139.6782  VDWAALS    =     -2642.1880
 EELEC  =    -21558.8984  EGB     =     -2954.4525  RESTRAINT  =         0.0000
 RM1ESCF=        -0.8696
 CMAP   =       217.8048
 ------------------------------------------------------------------------------

      A V E R A G E S   O V E R   10000 S T E P S

 NSTEP =    10000   TIME(PS) =      20.000  TEMP(K) =   287.08  PRESS =     0.0
 Etot   =     -5128.6222  EKtot   =      3346.7866  EPtot      =     -8475.4088
 BOND   =       887.7809  ANGLE   =      2291.5271  DIHED      =      1663.2125
 1-4 NB =      1045.8461  1-4 EEL =     12020.5854  VDWAALS    =     -2363.7559
 EELEC  =    -20930.6851  EGB     =     -3341.6308  RESTRAINT  =         0.0000
 RM1ESCF=        29.0926
 CMAP   =       222.6185
 ------------------------------------------------------------------------------

      R M S  F L U C T U A T I O N S

 NSTEP =    10000   TIME(PS) =      20.000  TEMP(K) =    44.94  PRESS =     0.0
 Etot   =      1081.5925  EKtot   =       523.8918  EPtot      =       559.6513
 BOND   =       119.5498  ANGLE   =       277.2558  DIHED      =        79.7854
 1-4 NB =        20.4554  1-4 EEL =        41.2269  VDWAALS    =        55.9567
 EELEC  =       144.3237  EGB     =       114.5630  RESTRAINT  =         0.0000
 RM1ESCF=         6.9419
 CMAP   =         7.8377
 ------------------------------------------------------------------------------
