-------------------------------------------------------
          Amber 18 SANDER                              2018
          -------------------------------------------------------

  [-O]verwriting output

File Assignments:

 Here is the input file:

MD with GB7
 &cntrl
  nstlim = 10000, dt = 0.002,
  ntwr = 5000, ntwx = 500,
  ntc = 2, ntf = 2,
  ntt = 3, temp0 = 300, gamma_ln = 1.0,
  ntb = 0, igb = 7, cut = 9999.0,
  ifqnt = 1,
 /

 &qmmm
  qmmask = ':305', qmcharge = 0,
  qm_theory = 'RM1', qmcut = 20.0,
 /

--------------------------------------------------------------------------------
   1.  RESOURCE   USE:
--------------------------------------------------------------------------------

 NATOM  =    4677 NTYPES =      23 NBONH =    2310 MBONA  =    2421
 NTHETH =    5219 MTHETA =    3291 NPHIH =   10768 MPHIA  =   10495
 NHPARM =       0 NPARM  =       0 NNB   =   25735 NRES   =     305
 NBONA  =    2421 NTHETA =    3291 NPHIA =   10495 NUMBND =      89
 NUMANG =     202 NPTRA  =     209 NATYP =      46 NPHB   =       0
 IFBOX  =       0 NMXRS  =      31 IFCAP =       0 NEXTRA =       0
 NCOPY  =       0

 Implicit solvent radii are ArgH and AspGluO modified Bondi2 radii (mbondi3)
 Replacing prmtop screening parameters with GBn (igb=7) values

LOADING THE QUANTUM ATOMS AS GROUPS
     Mask :305; matches    31 atoms

--------------------------------------------------------------------------------
   2.  CONTROL  DATA  FOR  THE  RUN
--------------------------------------------------------------------------------

default_name

General flags:
     imin    =       0, nmropt  =       0

Nature and format of input:
     ntx     =       1, irest   =       0, ntrx    =       1

Nature and format of output:
     ntxo    =       2, ntpr    =      50, ntrx    =       1, ntwr    =    5000
     iwrap   =       0, ntwx    =     500, ntwv    =       0, ntwe    =       0
     ioutfm  =       1, ntwprt  =       0, idecomp =       0, rbornstat=      0

Potential function:
     ntf     =       2, ntb     =       0, igb     =       7, nsnb    =      25
     ipol    =       0, gbsa    =       0, iesp    =       0
     dielc   =   1.00000, cut     =9999.00000, intdiel =   1.00000
     saltcon =   0.00000, offset  =   0.09000, gbalpha=    1.09511
     gbbeta  =   1.90793, gbgamma =   2.50798, surften =   0.00500
     rdt     =   0.00000, rgbmax  =  25.00000  extdiel =  78.50000
     alpb  =        0

Frozen or restrained atoms:
     ibelly  =       0, ntr     =       0

Molecular dynamics:
     nstlim  =     10000, nscm    =      1000, nrespa  =         1
     t       =   0.00000, dt      =   0.00200, vlimit  =  20.00000

Langevin dynamics temperature regulation:
     ig      =   71277
     temp0   = 300.00000, tempi   =   0.00000, gamma_ln=   1.00000

SHAKE:
     ntc     =       2, jfastw  =       0
     tol     =   0.00001

QMMM options:
             ifqnt = True       nquant =       31
              qmgb =        2  qmcharge =        0   adjust_q =        2
              spin =        1     qmcut =  20.0000    qmshake =        1
          qmmm_int =        1
     lnk_atomic_no =        1   lnk_dis =   1.0900 lnk_method =        1
          qm_theory =     RM1 verbosity =        0
            qmqmdx = Analytical
      tight_p_conv = False (converge density to 0.05xSqrt[SCFCRT])
           scfconv = 0.100E-07  itrmax =     1000
      printcharges = False      printdipole = False      peptide_corr = False
    qmmmrij_incore = True
  qmqm_erep_incore = True
       pseudo_diag = True pseudo_diag_criteria =   0.0500
      diag_routine =        0
          qm_ewald =        0 qm_pme = False

--------------------------------------------------------------------------------
   3.  ATOMIC COORDINATES AND VELOCITIES
--------------------------------------------------------------------------------

default_name
 begin time read from input coords =     0.000 ps

 Number of triangulated 3-point waters found:        0
QMMM: ADJUSTING CHARGES
QMMM: ----------------------------------------------------------------------
QMMM: adjust_q = 2
QMMM: Uniformly adjusting the charge of MM atoms to conserve total charge.
QMMM:                             qm_charge =    0
QMMM: QM atom RESP charge sum (inc MM link) =    0.000
QMMM: Adjusting each MM atom resp charge by =    0.000
QMMM:          Sum of MM + QM region is now =   -3.000
QMMM: ----------------------------------------------------------------------

QMMM: Link Atom Information
QMMM: ------------------------------------------------------------------------
QMMM: nlink =     0
QMMM: ------------------------------------------------------------------------

  QMMM: QM Region Cartesian Coordinates (*=link atom)
  QMMM: QM_NO.   MM_NO.  ATOM         X         Y         Z
  QMMM:     1     4647      O        8.7458    0.9598   20.7157
  QMMM:     2     4648      C        8.2447    0.0155   21.3493
  QMMM:     3     4649      N        8.9639   -0.6904   22.3096
  QMMM:     4     4650      C       10.2834   -0.2416   22.6214
  QMMM:     5     4651      C       10.4365    0.9118   23.3924
  QMMM:     6     4652      C       11.7168    1.3742   23.6701
  QMMM:     7     4653      C       12.8256    0.6918   23.1855
  QMMM:     8     4654      C       12.6601   -0.4677   22.4376
  QMMM:     9     4655      C       11.3902   -0.9468   22.1453
  QMMM:    10     4656      N        6.9140   -0.3893   21.1279
  QMMM:    11     4657      C        6.2429    0.1828   20.0220
  QMMM:    12     4658      C        5.0863    0.9596   20.1897
  QMMM:    13     4659      C        4.5162    1.5557   19.0307
  QMMM:    14     4660      C        5.0847    1.3376   17.7617
  QMMM:    15     4661      N        6.1669    0.5677   17.6191
  QMMM:    16     4662      C        6.7359    0.0094   18.7321
  QMMM:    17     4663      H        8.6396   -1.5653   22.7144
  QMMM:    18     4664      H        9.5623    1.4543   23.7714
  QMMM:    19     4665      H       11.8415    2.2874   24.2620
  QMMM:    20     4666      H       13.8302    1.0828   23.3697
  QMMM:    21     4667      H       13.5368   -1.0015   22.0582
  QMMM:    22     4668      H       11.2630   -1.8514   21.5403
  QMMM:    23     4669      H        6.3506   -0.8389   21.8494
  QMMM:    24     4670      N        3.4074    2.2936   19.4308
  QMMM:    25     4671      H        4.6869    1.8214   16.8630
  QMMM:    26     4672      H        7.6403   -0.5811   18.5247
  QMMM:    27     4673      C        4.2943    1.3594   21.3058
  QMMM:    28     4674      H        4.4667    1.0828   22.3400
  QMMM:    29     4675      C        3.2931    2.1862   20.8207
  QMMM:    30     4676      H        2.4968    2.7001   21.3747
  QMMM:    31     4677      H        2.9121    2.9481   18.8344

--------------------------------------------------------------------------------
  3.1 QM CALCULATION INFO
--------------------------------------------------------------------------------

QMMM: SINGLET STATE CALCULATION
QMMM: RHF CALCULATION, NO. OF DOUBLY OCCUPIED LEVELS = 47

--------------------------------------------------------------------------------
   4.  RESULTS
 NSTEP =        0   TIME(PS) =       0.000  TEMP(K) =     0.00  PRESS =     0.0
 Etot   =    -11942.2307  EKtot   =         0.0000  EPtot      =    -11942.2307
 BOND   =       143.0918  ANGLE   =       552.9935  DIHED      =      1194.6190
 1-4 NB =       952.1470  1-4 EEL =     12130.6482  VDWAALS    =     -2644.2520
 EELEC  =    -21569.0155  EGB     =     -2934.1559  RESTRAINT  =         0.0000
 RM1ESCF=        12.5790
 CMAP   =       219.1142
 ------------------------------------------------------------------------------

      A V E R A G E S   O V E R   10000 S T E P S

 NSTEP =    10000   TIME(PS) =      20.000  TEMP(K) =   284.36  PRESS =     0.0
 Etot   =     -5193.4170  EKtot   =      3311.5951  EPtot      =     -8505.0121
 BOND   =       881.1732  ANGLE   =      2277.3489  DIHED      =      1654.8986
 1-4 NB =      1043.9969  1-4 EEL =     12013.6594  VDWAALS    =     -2375.9434
 EELEC  =    -20938.6745  EGB     =     -3322.3939  RESTRAINT  =         0.0000
 RM1ESCF=        38.6592
 CMAP   =       222.2635
 ------------------------------------------------------------------------------

      R M S  F L U C T U A T I O N S

 NSTEP =    10000   TIME(PS) =      20.000  TEMP(K) =    44.17  PRESS =     0.0
 Etot   =      1059.8625  EKtot   =       514.4342  EPtot      =       547.4385
 BOND   =       118.1945  ANGLE   =       271.4011  DIHED      =        77.7331
 1-4 NB =        20.2161  1-4 EEL =        41.3047  VDWAALS    =        52.6553
 EELEC  =       149.2604  EGB     =       117.1803  RESTRAINT  =         0.0000
 RM1ESCF=         8.4819
 CMAP   =         8.6039
 ------------------------------------------------------------------------------
