-------------------------------------------------------
          Amber 18 SANDER                              2018
          -------------------------------------------------------

  [-O]verwriting output

File Assignments:

 Here is the input file:

MD with GB7
 &cntrl
  nstlim = 10000, dt = 0.002,
  ntwr = 5000, ntwx = 500,
  ntc = 2, ntf = 2,
  ntt = 3, temp0 = 300, gamma_ln = 1.0,
  ntb = 0, igb = 7, cut = 9999.0,
  ifqnt = 1,
 /

 &qmmm
  qmmask = ':305', qmcharge = 0,
  qm_theory = 'RM1', qmcut = 20.0,
 /

--------------------------------------------------------------------------------
   1.  RESOURCE   USE:
--------------------------------------------------------------------------------

 NATOM  =    4684 NTYPES =      25 NBONH =    2317 MBONA  =    2421
 NTHETH =    5240 MTHETA =    3291 NPHIH =   10800 MPHIA  =   10511
 NHPARM =       0 NPARM  =       0 NNB   =   25800 NRES   =     305
 NBONA  =    2421 NTHETA =    3291 NPHIA =   10511 NUMBND =      91
 NUMANG =     207 NPTRA  =     223 NATYP =      48 NPHB   =       0
 IFBOX  =       0 NMXRS  =      38 IFCAP =       0 NEXTRA =       0
 NCOPY  =       0

 Implicit solvent radii are ArgH and AspGluO modified Bondi2 radii (mbondi3)
 Replacing prmtop screening parameters with GBn (igb=7) values

LOADING THE QUANTUM ATOMS AS GROUPS
     Mask :305; matches    38 atoms

--------------------------------------------------------------------------------
   2.  CONTROL  DATA  FOR  THE  RUN
--------------------------------------------------------------------------------

default_name

General flags:
     imin    =       0, nmropt  =       0

Nature and format of input:
     ntx     =       1, irest   =       0, ntrx    =       1

Nature and format of output:
     ntxo    =       2, ntpr    =      50, ntrx    =       1, ntwr    =    5000
     iwrap   =       0, ntwx    =     500, ntwv    =       0, ntwe    =       0
     ioutfm  =       1, ntwprt  =       0, idecomp =       0, rbornstat=      0

Potential function:
     ntf     =       2, ntb     =       0, igb     =       7, nsnb    =      25
     ipol    =       0, gbsa    =       0, iesp    =       0
     dielc   =   1.00000, cut     =9999.00000, intdiel =   1.00000
     saltcon =   0.00000, offset  =   0.09000, gbalpha=    1.09511
     gbbeta  =   1.90793, gbgamma =   2.50798, surften =   0.00500
     rdt     =   0.00000, rgbmax  =  25.00000  extdiel =  78.50000
     alpb  =        0

Frozen or restrained atoms:
     ibelly  =       0, ntr     =       0

Molecular dynamics:
     nstlim  =     10000, nscm    =      1000, nrespa  =         1
     t       =   0.00000, dt      =   0.00200, vlimit  =  20.00000

Langevin dynamics temperature regulation:
     ig      =   71277
     temp0   = 300.00000, tempi   =   0.00000, gamma_ln=   1.00000

SHAKE:
     ntc     =       2, jfastw  =       0
     tol     =   0.00001

QMMM options:
             ifqnt = True       nquant =       38
              qmgb =        2  qmcharge =        0   adjust_q =        2
              spin =        1     qmcut =  20.0000    qmshake =        1
          qmmm_int =        1
     lnk_atomic_no =        1   lnk_dis =   1.0900 lnk_method =        1
          qm_theory =     RM1 verbosity =        0
            qmqmdx = Analytical
      tight_p_conv = False (converge density to 0.05xSqrt[SCFCRT])
           scfconv = 0.100E-07  itrmax =     1000
      printcharges = False      printdipole = False      peptide_corr = False
    qmmmrij_incore = True
  qmqm_erep_incore = True
       pseudo_diag = True pseudo_diag_criteria =   0.0500
      diag_routine =        0
          qm_ewald =        0 qm_pme = False

--------------------------------------------------------------------------------
   3.  ATOMIC COORDINATES AND VELOCITIES
--------------------------------------------------------------------------------

default_name
 begin time read from input coords =     0.000 ps

 Number of triangulated 3-point waters found:        0
QMMM: ADJUSTING CHARGES
QMMM: ----------------------------------------------------------------------
QMMM: adjust_q = 2
QMMM: Uniformly adjusting the charge of MM atoms to conserve total charge.
QMMM:                             qm_charge =    0
QMMM: QM atom RESP charge sum (inc MM link) =   -0.000
QMMM: Adjusting each MM atom resp charge by =   -0.000
QMMM:          Sum of MM + QM region is now =   -3.000
QMMM: ----------------------------------------------------------------------

QMMM: Link Atom Information
QMMM: ------------------------------------------------------------------------
QMMM: nlink =     0
QMMM: ------------------------------------------------------------------------

  QMMM: QM Region Cartesian Coordinates (*=link atom)
  QMMM: QM_NO.   MM_NO.  ATOM         X         Y         Z
  QMMM:     1     4647      O        9.3041    1.1886   20.9974
  QMMM:     2     4648      C        8.7242    0.4647   21.8150
  QMMM:     3     4649      C        9.3287    0.0162   23.1277
  QMMM:     4     4650      C       10.8577    0.0080   23.0407
  QMMM:     5     4651      C       11.3285   -1.0404   22.0280
  QMMM:     6     4652      C       12.5308   -1.8426   22.5146
  QMMM:     7     4653      C       13.5646   -0.9787   23.2175
  QMMM:     8     4654      C       12.9665   -0.1285   24.3349
  QMMM:     9     4655      C       11.4515   -0.2640   24.4222
  QMMM:    10     4656      N        7.4111    0.0652   21.5725
  QMMM:    11     4657      C        6.7669    0.4095   20.3654
  QMMM:    12     4658      C        5.5201    1.0597   20.3860
  QMMM:    13     4659      C        4.9442    1.4331   19.1379
  QMMM:    14     4660      C        5.5942    1.1267   17.9359
  QMMM:    15     4661      N        6.7684    0.4898   17.9314
  QMMM:    16     4662      C        7.3388    0.1400   19.1249
  QMMM:    17     4663      H        8.9551   -0.9868   23.4373
  QMMM:    18     4664      H        8.9757    0.7106   23.9221
  QMMM:    19     4665      H       11.2076    1.0210   22.7093
  QMMM:    20     4666      H       10.5180   -1.7508   21.7566
  QMMM:    21     4667      H       11.5522   -0.5379   21.0679
  QMMM:    22     4668      H       13.0070   -2.3589   21.6554
  QMMM:    23     4669      H       12.2016   -2.6625   23.1886
  QMMM:    24     4670      H       14.3704   -1.6287   23.6202
  QMMM:    25     4671      H       14.0804   -0.3335   22.4795
  QMMM:    26     4672      H       13.4388   -0.3948   25.3016
  QMMM:    27     4673      H       13.2365    0.9386   24.1827
  QMMM:    28     4674      H       11.0450    0.4421   25.1765
  QMMM:    29     4675      H       11.1544   -1.2649   24.7956
  QMMM:    30     4676      H        6.8522   -0.4146   22.2801
  QMMM:    31     4677      C        4.6284    1.4901   21.4131
  QMMM:    32     4678      N        3.7335    2.0682   19.4034
  QMMM:    33     4679      H        5.1866    1.4225   16.9639
  QMMM:    34     4680      H        8.3047   -0.3765   19.0263
  QMMM:    35     4681      C        3.5609    2.1166   20.7941
  QMMM:    36     4682      H        2.6802    2.5851   21.2475
  QMMM:    37     4683      H        4.7706    1.3400   22.4795
  QMMM:    38     4684      H        3.2045    2.5821   18.7064

--------------------------------------------------------------------------------
  3.1 QM CALCULATION INFO
--------------------------------------------------------------------------------

QMMM: SINGLET STATE CALCULATION
QMMM: RHF CALCULATION, NO. OF DOUBLY OCCUPIED LEVELS = 50

--------------------------------------------------------------------------------
   4.  RESULTS
 NSTEP =        0   TIME(PS) =       0.000  TEMP(K) =     0.00  PRESS =     0.0
 Etot   =    -11970.8277  EKtot   =         0.0000  EPtot      =    -11970.8277
 BOND   =       141.0298  ANGLE   =       550.9174  DIHED      =      1204.4820
 1-4 NB =       953.3554  1-4 EEL =     12153.1058  VDWAALS    =     -2641.2241
 EELEC  =    -21574.8366  EGB     =     -2936.0092  RESTRAINT  =         0.0000
 RM1ESCF=       -43.8323
 CMAP   =       222.1841
 ------------------------------------------------------------------------------

      A V E R A G E S   O V E R   10000 S T E P S

 NSTEP =    10000   TIME(PS) =      20.000  TEMP(K) =   285.23  PRESS =     0.0
 Etot   =     -5209.9574  EKtot   =      3325.7722  EPtot      =     -8535.7296
 BOND   =       881.5503  ANGLE   =      2278.4215  DIHED      =      1661.8937
 1-4 NB =      1046.9489  1-4 EEL =     12044.5963  VDWAALS    =     -2373.6389
 EELEC  =    -20938.7730  EGB     =     -3352.7167  RESTRAINT  =         0.0000
 RM1ESCF=        -8.5891
 CMAP   =       224.5773
 ------------------------------------------------------------------------------

      R M S  F L U C T U A T I O N S

 NSTEP =    10000   TIME(PS) =      20.000  TEMP(K) =    44.41  PRESS =     0.0
 Etot   =      1067.0531  EKtot   =       517.8387  EPtot      =       551.1986
 BOND   =       118.7483  ANGLE   =       273.9188  DIHED      =        79.6915
 1-4 NB =        21.1552  1-4 EEL =        39.7367  VDWAALS    =        52.0874
 EELEC  =       130.2531  EGB     =       103.8359  RESTRAINT  =         0.0000
 RM1ESCF=         9.1037
 CMAP   =         9.1265
 ------------------------------------------------------------------------------
