-------------------------------------------------------
          Amber 18 SANDER                              2018
          -------------------------------------------------------

  [-O]verwriting output

File Assignments:

 Here is the input file:

MD with GB7
 &cntrl
  nstlim = 10000, dt = 0.002,
  ntwr = 5000, ntwx = 500,
  ntc = 2, ntf = 2,
  ntt = 3, temp0 = 300, gamma_ln = 1.0,
  ntb = 0, igb = 7, cut = 9999.0,
  ifqnt = 1,
 /

 &qmmm
  qmmask = ':305', qmcharge = 0,
  qm_theory = 'RM1', qmcut = 20.0,
 /

--------------------------------------------------------------------------------
   1.  RESOURCE   USE:
--------------------------------------------------------------------------------

 NATOM  =    4676 NTYPES =      24 NBONH =    2309 MBONA  =    2421
 NTHETH =    5217 MTHETA =    3291 NPHIH =   10763 MPHIA  =   10495
 NHPARM =       0 NPARM  =       0 NNB   =   25728 NRES   =     305
 NBONA  =    2421 NTHETA =    3291 NPHIA =   10495 NUMBND =      88
 NUMANG =     200 NPTRA  =     207 NATYP =      47 NPHB   =       0
 IFBOX  =       0 NMXRS  =      30 IFCAP =       0 NEXTRA =       0
 NCOPY  =       0

 Implicit solvent radii are ArgH and AspGluO modified Bondi2 radii (mbondi3)
 Replacing prmtop screening parameters with GBn (igb=7) values

LOADING THE QUANTUM ATOMS AS GROUPS
     Mask :305; matches    30 atoms

--------------------------------------------------------------------------------
   2.  CONTROL  DATA  FOR  THE  RUN
--------------------------------------------------------------------------------

default_name

General flags:
     imin    =       0, nmropt  =       0

Nature and format of input:
     ntx     =       1, irest   =       0, ntrx    =       1

Nature and format of output:
     ntxo    =       2, ntpr    =      50, ntrx    =       1, ntwr    =    5000
     iwrap   =       0, ntwx    =     500, ntwv    =       0, ntwe    =       0
     ioutfm  =       1, ntwprt  =       0, idecomp =       0, rbornstat=      0

Potential function:
     ntf     =       2, ntb     =       0, igb     =       7, nsnb    =      25
     ipol    =       0, gbsa    =       0, iesp    =       0
     dielc   =   1.00000, cut     =9999.00000, intdiel =   1.00000
     saltcon =   0.00000, offset  =   0.09000, gbalpha=    1.09511
     gbbeta  =   1.90793, gbgamma =   2.50798, surften =   0.00500
     rdt     =   0.00000, rgbmax  =  25.00000  extdiel =  78.50000
     alpb  =        0

Frozen or restrained atoms:
     ibelly  =       0, ntr     =       0

Molecular dynamics:
     nstlim  =     10000, nscm    =      1000, nrespa  =         1
     t       =   0.00000, dt      =   0.00200, vlimit  =  20.00000

Langevin dynamics temperature regulation:
     ig      =   71277
     temp0   = 300.00000, tempi   =   0.00000, gamma_ln=   1.00000

SHAKE:
     ntc     =       2, jfastw  =       0
     tol     =   0.00001

QMMM options:
             ifqnt = True       nquant =       30
              qmgb =        2  qmcharge =        0   adjust_q =        2
              spin =        1     qmcut =  20.0000    qmshake =        1
          qmmm_int =        1
     lnk_atomic_no =        1   lnk_dis =   1.0900 lnk_method =        1
          qm_theory =     RM1 verbosity =        0
            qmqmdx = Analytical
      tight_p_conv = False (converge density to 0.05xSqrt[SCFCRT])
           scfconv = 0.100E-07  itrmax =     1000
      printcharges = False      printdipole = False      peptide_corr = False
    qmmmrij_incore = True
  qmqm_erep_incore = True
       pseudo_diag = True pseudo_diag_criteria =   0.0500
      diag_routine =        0
          qm_ewald =        0 qm_pme = False

--------------------------------------------------------------------------------
   3.  ATOMIC COORDINATES AND VELOCITIES
--------------------------------------------------------------------------------

default_name
 begin time read from input coords =     0.000 ps

 Number of triangulated 3-point waters found:        0
QMMM: ADJUSTING CHARGES
QMMM: ----------------------------------------------------------------------
QMMM: adjust_q = 2
QMMM: Uniformly adjusting the charge of MM atoms to conserve total charge.
QMMM:                             qm_charge =    0
QMMM: QM atom RESP charge sum (inc MM link) =   -0.003
QMMM: Adjusting each MM atom resp charge by =   -0.000
QMMM:          Sum of MM + QM region is now =   -3.003
QMMM: ----------------------------------------------------------------------

QMMM: Link Atom Information
QMMM: ------------------------------------------------------------------------
QMMM: nlink =     0
QMMM: ------------------------------------------------------------------------

  QMMM: QM Region Cartesian Coordinates (*=link atom)
  QMMM: QM_NO.   MM_NO.  ATOM         X         Y         Z
  QMMM:     1     4647      O        8.7243    0.9509   20.6902
  QMMM:     2     4648      C        8.2392    0.0032   21.3300
  QMMM:     3     4649      N        8.9638   -0.6976   22.2864
  QMMM:     4     4650      C       10.2809   -0.2426   22.5963
  QMMM:     5     4651      C       10.4292    0.9183   23.3579
  QMMM:     6     4652      C       11.7084    1.3836   23.6418
  QMMM:     7     4653      C       12.8205    0.6950   23.1695
  QMMM:     8     4654      C       12.6602   -0.4707   22.4271
  QMMM:     9     4655      C       11.3905   -0.9513   22.1311
  QMMM:    10     4656      N        6.9065   -0.4234   21.1100
  QMMM:    11     4657      C        6.2314    0.1583   20.0154
  QMMM:    12     4658      C        5.0746    0.9376   20.1840
  QMMM:    13     4659      C        4.4982    1.5615   19.0430
  QMMM:    14     4660      C        5.0554    1.3566   17.7671
  QMMM:    15     4661      N        6.1292    0.5783   17.6157
  QMMM:    16     4662      C        6.7071    0.0014   18.7150
  QMMM:    17     4663      H        8.6459   -1.5814   22.6807
  QMMM:    18     4664      H        9.5536    1.4642   23.7260
  QMMM:    19     4665      H       11.8301    2.3002   24.2267
  QMMM:    20     4666      H       13.8216    1.0856   23.3577
  QMMM:    21     4667      H       13.5385   -1.0060   22.0555
  QMMM:    22     4668      H       11.2665   -1.8604   21.5320
  QMMM:    23     4669      H        6.3396   -0.7889   21.8764
  QMMM:    24     4670      N        3.4017    2.2889   19.5092
  QMMM:    25     4671      H        4.6531    1.8477   16.8730
  QMMM:    26     4672      H        7.6032   -0.5998   18.4948
  QMMM:    27     4673      N        4.3332    1.2642   21.3308
  QMMM:    28     4674      C        3.3499    2.0915   20.8961
  QMMM:    29     4675      H        2.5770    2.5530   21.5461
  QMMM:    30     4676      H        2.8785    2.9635   18.9575

--------------------------------------------------------------------------------
  3.1 QM CALCULATION INFO
--------------------------------------------------------------------------------

QMMM: SINGLET STATE CALCULATION
QMMM: RHF CALCULATION, NO. OF DOUBLY OCCUPIED LEVELS = 47

--------------------------------------------------------------------------------
   4.  RESULTS
 NSTEP =        0   TIME(PS) =       0.000  TEMP(K) =     0.00  PRESS =     0.0
 Etot   =    -11944.0447  EKtot   =         0.0000  EPtot      =    -11944.0447
 BOND   =       143.1372  ANGLE   =       553.2214  DIHED      =      1193.6740
 1-4 NB =       950.8548  1-4 EEL =     12134.1305  VDWAALS    =     -2643.6339
 EELEC  =    -21576.2406  EGB     =     -2935.9679  RESTRAINT  =         0.0000
 RM1ESCF=        17.9460
 CMAP   =       218.8339
 ------------------------------------------------------------------------------

      A V E R A G E S   O V E R   10000 S T E P S

 NSTEP =    10000   TIME(PS) =      20.000  TEMP(K) =   286.37  PRESS =     0.0
 Etot   =     -5129.0620  EKtot   =      3334.4308  EPtot      =     -8463.4928
 BOND   =       890.8255  ANGLE   =      2289.7444  DIHED      =      1657.6654
 1-4 NB =      1042.0683  1-4 EEL =     12001.2877  VDWAALS    =     -2366.9250
 EELEC  =    -20900.3351  EGB     =     -3347.7394  RESTRAINT  =         0.0000
 RM1ESCF=        44.8759
 CMAP   =       225.0395
 ------------------------------------------------------------------------------

      R M S  F L U C T U A T I O N S

 NSTEP =    10000   TIME(PS) =      20.000  TEMP(K) =    45.31  PRESS =     0.0
 Etot   =      1090.7864  EKtot   =       527.5300  EPtot      =       565.2167
 BOND   =       122.2401  ANGLE   =       278.4239  DIHED      =        77.0824
 1-4 NB =        19.5019  1-4 EEL =        42.7978  VDWAALS    =        55.6537
 EELEC  =       160.4201  EGB     =       120.6674  RESTRAINT  =         0.0000
 RM1ESCF=        10.2953
 CMAP   =         9.5708
 ------------------------------------------------------------------------------
