-------------------------------------------------------
          Amber 18 SANDER                              2018
          -------------------------------------------------------

  [-O]verwriting output

File Assignments:

 Here is the input file:

MD with GB7
 &cntrl
  nstlim = 10000, dt = 0.002,
  ntwr = 5000, ntwx = 500,
  ntc = 2, ntf = 2,
  ntt = 3, temp0 = 300, gamma_ln = 1.0,
  ntb = 0, igb = 7, cut = 9999.0,
  ifqnt = 1,
 /

 &qmmm
  qmmask = ':305', qmcharge = 0,
  qm_theory = 'RM1', qmcut = 20.0,
 /

--------------------------------------------------------------------------------
   1.  RESOURCE   USE:
--------------------------------------------------------------------------------

 NATOM  =    4675 NTYPES =      23 NBONH =    2310 MBONA  =    2418
 NTHETH =    5218 MTHETA =    3286 NPHIH =   10765 MPHIA  =   10484
 NHPARM =       0 NPARM  =       0 NNB   =   25719 NRES   =     305
 NBONA  =    2418 NTHETA =    3286 NPHIA =   10484 NUMBND =      84
 NUMANG =     194 NPTRA  =     205 NATYP =      44 NPHB   =       0
 IFBOX  =       0 NMXRS  =      29 IFCAP =       0 NEXTRA =       0
 NCOPY  =       0

 Implicit solvent radii are ArgH and AspGluO modified Bondi2 radii (mbondi3)
 Replacing prmtop screening parameters with GBn (igb=7) values

LOADING THE QUANTUM ATOMS AS GROUPS
     Mask :305; matches    29 atoms

--------------------------------------------------------------------------------
   2.  CONTROL  DATA  FOR  THE  RUN
--------------------------------------------------------------------------------

default_name

General flags:
     imin    =       0, nmropt  =       0

Nature and format of input:
     ntx     =       1, irest   =       0, ntrx    =       1

Nature and format of output:
     ntxo    =       2, ntpr    =      50, ntrx    =       1, ntwr    =    5000
     iwrap   =       0, ntwx    =     500, ntwv    =       0, ntwe    =       0
     ioutfm  =       1, ntwprt  =       0, idecomp =       0, rbornstat=      0

Potential function:
     ntf     =       2, ntb     =       0, igb     =       7, nsnb    =      25
     ipol    =       0, gbsa    =       0, iesp    =       0
     dielc   =   1.00000, cut     =9999.00000, intdiel =   1.00000
     saltcon =   0.00000, offset  =   0.09000, gbalpha=    1.09511
     gbbeta  =   1.90793, gbgamma =   2.50798, surften =   0.00500
     rdt     =   0.00000, rgbmax  =  25.00000  extdiel =  78.50000
     alpb  =        0

Frozen or restrained atoms:
     ibelly  =       0, ntr     =       0

Molecular dynamics:
     nstlim  =     10000, nscm    =      1000, nrespa  =         1
     t       =   0.00000, dt      =   0.00200, vlimit  =  20.00000

Langevin dynamics temperature regulation:
     ig      =   71277
     temp0   = 300.00000, tempi   =   0.00000, gamma_ln=   1.00000

SHAKE:
     ntc     =       2, jfastw  =       0
     tol     =   0.00001

QMMM options:
             ifqnt = True       nquant =       29
              qmgb =        2  qmcharge =        0   adjust_q =        2
              spin =        1     qmcut =  20.0000    qmshake =        1
          qmmm_int =        1
     lnk_atomic_no =        1   lnk_dis =   1.0900 lnk_method =        1
          qm_theory =     RM1 verbosity =        0
            qmqmdx = Analytical
      tight_p_conv = False (converge density to 0.05xSqrt[SCFCRT])
           scfconv = 0.100E-07  itrmax =     1000
      printcharges = False      printdipole = False      peptide_corr = False
    qmmmrij_incore = True
  qmqm_erep_incore = True
       pseudo_diag = True pseudo_diag_criteria =   0.0500
      diag_routine =        0
          qm_ewald =        0 qm_pme = False

--------------------------------------------------------------------------------
   3.  ATOMIC COORDINATES AND VELOCITIES
--------------------------------------------------------------------------------

default_name
 begin time read from input coords =     0.000 ps

 Number of triangulated 3-point waters found:        0
QMMM: ADJUSTING CHARGES
QMMM: ----------------------------------------------------------------------
QMMM: adjust_q = 2
QMMM: Uniformly adjusting the charge of MM atoms to conserve total charge.
QMMM:                             qm_charge =    0
QMMM: QM atom RESP charge sum (inc MM link) =   -0.000
QMMM: Adjusting each MM atom resp charge by =   -0.000
QMMM:          Sum of MM + QM region is now =   -3.000
QMMM: ----------------------------------------------------------------------

QMMM: Link Atom Information
QMMM: ------------------------------------------------------------------------
QMMM: nlink =     0
QMMM: ------------------------------------------------------------------------

  QMMM: QM Region Cartesian Coordinates (*=link atom)
  QMMM: QM_NO.   MM_NO.  ATOM         X         Y         Z
  QMMM:     1     4647      O        8.8186    0.8851   20.7203
  QMMM:     2     4648      C        8.2917   -0.0221   21.3853
  QMMM:     3     4649      N        8.9948   -0.7352   22.3488
  QMMM:     4     4650      C       10.3092   -0.2841   22.6813
  QMMM:     5     4651      C       10.4422    0.8255   23.5173
  QMMM:     6     4652      C       11.7114    1.3167   23.7927
  QMMM:     7     4653      C       12.8307    0.6970   23.2496
  QMMM:     8     4654      C       12.6873   -0.4304   22.4491
  QMMM:     9     4655      C       11.4263   -0.9309   22.1514
  QMMM:    10     4656      N        6.9391   -0.3765   21.1921
  QMMM:    11     4657      C        6.2798    0.2009   20.0797
  QMMM:    12     4658      C        5.1462    0.9875   20.2533
  QMMM:    13     4659      C        4.5374    1.5345   19.1124
  QMMM:    14     4660      C        5.1031    1.2453   17.8463
  QMMM:    15     4661      N        6.1972    0.4807   17.6882
  QMMM:    16     4662      C        6.7829   -0.0363   18.7863
  QMMM:    17     4663      H        8.6320   -1.5696   22.8030
  QMMM:    18     4664      H        9.5593    1.3147   23.9460
  QMMM:    19     4665      H       11.8184    2.2029   24.4258
  QMMM:    20     4666      H       13.8248    1.1146   23.4258
  QMMM:    21     4667      H       13.5737   -0.9202   22.0345
  QMMM:    22     4668      H       11.3147   -1.8054   21.4997
  QMMM:    23     4669      H        6.3623   -0.7176   21.9632
  QMMM:    24     4670      H        4.7526    1.2013   21.2541
  QMMM:    25     4671      N        3.3658    2.2631   19.2199
  QMMM:    26     4672      H        4.6968    1.6787   16.9273
  QMMM:    27     4673      H        7.6849   -0.6383   18.6067
  QMMM:    28     4674      H        3.1919    2.7362   20.0976
  QMMM:    29     4675      H        3.0830    2.7990   18.4114

--------------------------------------------------------------------------------
  3.1 QM CALCULATION INFO
--------------------------------------------------------------------------------

QMMM: SINGLET STATE CALCULATION
QMMM: RHF CALCULATION, NO. OF DOUBLY OCCUPIED LEVELS = 43

--------------------------------------------------------------------------------
   4.  RESULTS
 NSTEP =        0   TIME(PS) =       0.000  TEMP(K) =     0.00  PRESS =     0.0
 Etot   =    -11940.3746  EKtot   =         0.0000  EPtot      =    -11940.3746
 BOND   =       141.7488  ANGLE   =       551.9936  DIHED      =      1196.4245
 1-4 NB =       954.8935  1-4 EEL =     12135.4452  VDWAALS    =     -2641.6223
 EELEC  =    -21567.4587  EGB     =     -2920.1866  RESTRAINT  =         0.0000
 RM1ESCF=       -13.8508
 CMAP   =       222.2382
 ------------------------------------------------------------------------------

      A V E R A G E S   O V E R   10000 S T E P S

 NSTEP =    10000   TIME(PS) =      20.000  TEMP(K) =   285.03  PRESS =     0.0
 Etot   =     -5184.5409  EKtot   =      3317.7736  EPtot      =     -8502.3145
 BOND   =       883.2377  ANGLE   =      2278.9566  DIHED      =      1660.1088
 1-4 NB =      1044.4629  1-4 EEL =     12007.9481  VDWAALS    =     -2370.6236
 EELEC  =    -20936.9611  EGB     =     -3309.2379  RESTRAINT  =         0.0000
 RM1ESCF=        12.9905
 CMAP   =       226.8035
 ------------------------------------------------------------------------------

      R M S  F L U C T U A T I O N S

 NSTEP =    10000   TIME(PS) =      20.000  TEMP(K) =    44.65  PRESS =     0.0
 Etot   =      1072.9435  EKtot   =       519.7592  EPtot      =       555.1444
 BOND   =       120.3660  ANGLE   =       274.5469  DIHED      =        79.1880
 1-4 NB =        20.3288  1-4 EEL =        44.6662  VDWAALS    =        50.8605
 EELEC  =       131.6313  EGB     =        92.0190  RESTRAINT  =         0.0000
 RM1ESCF=         7.8466
 CMAP   =         8.3641
 ------------------------------------------------------------------------------
