-------------------------------------------------------
          Amber 18 SANDER                              2018
          -------------------------------------------------------

  [-O]verwriting output

File Assignments:

 Here is the input file:

MD with GB7
 &cntrl
  nstlim = 10000, dt = 0.002,
  ntwr = 5000, ntwx = 500,
  ntc = 2, ntf = 2,
  ntt = 3, temp0 = 300, gamma_ln = 1.0,
  ntb = 0, igb = 7, cut = 9999.0,
  ifqnt = 1,
 /

 &qmmm
  qmmask = ':305', qmcharge = 0,
  qm_theory = 'RM1', qmcut = 20.0,
 /

--------------------------------------------------------------------------------
   1.  RESOURCE   USE:
--------------------------------------------------------------------------------

 NATOM  =    4673 NTYPES =      22 NBONH =    2309 MBONA  =    2417
 NTHETH =    5217 MTHETA =    3284 NPHIH =   10763 MPHIA  =   10481
 NHPARM =       0 NPARM  =       0 NNB   =   25709 NRES   =     305
 NBONA  =    2417 NTHETA =    3284 NPHIA =   10481 NUMBND =      82
 NUMANG =     191 NPTRA  =     204 NATYP =      43 NPHB   =       0
 IFBOX  =       0 NMXRS  =      27 IFCAP =       0 NEXTRA =       0
 NCOPY  =       0

 Implicit solvent radii are ArgH and AspGluO modified Bondi2 radii (mbondi3)
 Replacing prmtop screening parameters with GBn (igb=7) values

LOADING THE QUANTUM ATOMS AS GROUPS
     Mask :305; matches    27 atoms

--------------------------------------------------------------------------------
   2.  CONTROL  DATA  FOR  THE  RUN
--------------------------------------------------------------------------------

default_name

General flags:
     imin    =       0, nmropt  =       0

Nature and format of input:
     ntx     =       1, irest   =       0, ntrx    =       1

Nature and format of output:
     ntxo    =       2, ntpr    =      50, ntrx    =       1, ntwr    =    5000
     iwrap   =       0, ntwx    =     500, ntwv    =       0, ntwe    =       0
     ioutfm  =       1, ntwprt  =       0, idecomp =       0, rbornstat=      0

Potential function:
     ntf     =       2, ntb     =       0, igb     =       7, nsnb    =      25
     ipol    =       0, gbsa    =       0, iesp    =       0
     dielc   =   1.00000, cut     =9999.00000, intdiel =   1.00000
     saltcon =   0.00000, offset  =   0.09000, gbalpha=    1.09511
     gbbeta  =   1.90793, gbgamma =   2.50798, surften =   0.00500
     rdt     =   0.00000, rgbmax  =  25.00000  extdiel =  78.50000
     alpb  =        0

Frozen or restrained atoms:
     ibelly  =       0, ntr     =       0

Molecular dynamics:
     nstlim  =     10000, nscm    =      1000, nrespa  =         1
     t       =   0.00000, dt      =   0.00200, vlimit  =  20.00000

Langevin dynamics temperature regulation:
     ig      =   71277
     temp0   = 300.00000, tempi   =   0.00000, gamma_ln=   1.00000

SHAKE:
     ntc     =       2, jfastw  =       0
     tol     =   0.00001

QMMM options:
             ifqnt = True       nquant =       27
              qmgb =        2  qmcharge =        0   adjust_q =        2
              spin =        1     qmcut =  20.0000    qmshake =        1
          qmmm_int =        1
     lnk_atomic_no =        1   lnk_dis =   1.0900 lnk_method =        1
          qm_theory =     RM1 verbosity =        0
            qmqmdx = Analytical
      tight_p_conv = False (converge density to 0.05xSqrt[SCFCRT])
           scfconv = 0.100E-07  itrmax =     1000
      printcharges = False      printdipole = False      peptide_corr = False
    qmmmrij_incore = True
  qmqm_erep_incore = True
       pseudo_diag = True pseudo_diag_criteria =   0.0500
      diag_routine =        0
          qm_ewald =        0 qm_pme = False

--------------------------------------------------------------------------------
   3.  ATOMIC COORDINATES AND VELOCITIES
--------------------------------------------------------------------------------

default_name
 begin time read from input coords =     0.000 ps

 Number of triangulated 3-point waters found:        0
QMMM: ADJUSTING CHARGES
QMMM: ----------------------------------------------------------------------
QMMM: adjust_q = 2
QMMM: Uniformly adjusting the charge of MM atoms to conserve total charge.
QMMM:                             qm_charge =    0
QMMM: QM atom RESP charge sum (inc MM link) =   -0.000
QMMM: Adjusting each MM atom resp charge by =   -0.000
QMMM:          Sum of MM + QM region is now =   -3.000
QMMM: ----------------------------------------------------------------------

QMMM: Link Atom Information
QMMM: ------------------------------------------------------------------------
QMMM: nlink =     0
QMMM: ------------------------------------------------------------------------

  QMMM: QM Region Cartesian Coordinates (*=link atom)
  QMMM: QM_NO.   MM_NO.  ATOM         X         Y         Z
  QMMM:     1     4647      O        8.7745    0.9251   20.7059
  QMMM:     2     4648      C        8.2561    0.0170   21.3789
  QMMM:     3     4649      N        8.9629   -0.6810   22.3501
  QMMM:     4     4650      C       10.2842   -0.2355   22.6649
  QMMM:     5     4651      C       10.4375    0.8914   23.4726
  QMMM:     6     4652      C       11.7161    1.3586   23.7462
  QMMM:     7     4653      C       12.8233    0.7037   23.2213
  QMMM:     8     4654      C       12.6592   -0.4361   22.4434
  QMMM:     9     4655      C       11.3887   -0.9147   22.1508
  QMMM:    10     4656      N        6.9089   -0.3584   21.1817
  QMMM:    11     4657      C        6.2440    0.1919   20.0608
  QMMM:    12     4658      C        5.0486    0.9034   20.2056
  QMMM:    13     4659      C        4.4481    1.4210   19.0659
  QMMM:    14     4660      C        5.0640    1.2210   17.8258
  QMMM:    15     4661      N        6.2095    0.5210   17.6681
  QMMM:    16     4662      C        6.7880    0.0140   18.7758
  QMMM:    17     4663      H        8.5988   -1.5044   22.8262
  QMMM:    18     4664      H        9.5627    1.4090   23.8878
  QMMM:    19     4665      H       11.8401    2.2544   24.3631
  QMMM:    20     4666      H       13.8265    1.0986   23.4008
  QMMM:    21     4667      H       13.5358   -0.9527   22.0404
  QMMM:    22     4668      H       11.2606   -1.8039   21.5203
  QMMM:    23     4669      H        6.3352   -0.7236   21.9444
  QMMM:    24     4670      H        4.5941    1.0711   21.1905
  QMMM:    25     4671      H        3.5275    2.0089   19.1358
  QMMM:    26     4672      H        4.6476    1.6598   16.9124
  QMMM:    27     4673      H        7.7227   -0.5447   18.6090

--------------------------------------------------------------------------------
  3.1 QM CALCULATION INFO
--------------------------------------------------------------------------------

QMMM: SINGLET STATE CALCULATION
QMMM: RHF CALCULATION, NO. OF DOUBLY OCCUPIED LEVELS = 40

--------------------------------------------------------------------------------
   4.  RESULTS
 NSTEP =        0   TIME(PS) =       0.000  TEMP(K) =     0.00  PRESS =     0.0
 Etot   =    -11936.8136  EKtot   =         0.0000  EPtot      =    -11936.8136
 BOND   =       142.2218  ANGLE   =       551.4914  DIHED      =      1194.4759
 1-4 NB =       953.4402  1-4 EEL =     12131.6398  VDWAALS    =     -2641.5103
 EELEC  =    -21551.8868  EGB     =     -2939.4865  RESTRAINT  =         0.0000
 RM1ESCF=         2.0989
 CMAP   =       220.7021
 ------------------------------------------------------------------------------

      A V E R A G E S   O V E R   10000 S T E P S

 NSTEP =    10000   TIME(PS) =      20.000  TEMP(K) =   286.06  PRESS =     0.0
 Etot   =     -5144.3734  EKtot   =      3328.2709  EPtot      =     -8472.6444
 BOND   =       885.1671  ANGLE   =      2290.3960  DIHED      =      1656.7685
 1-4 NB =      1042.3097  1-4 EEL =     11993.8660  VDWAALS    =     -2351.5162
 EELEC  =    -20813.9925  EGB     =     -3426.9147  RESTRAINT  =         0.0000
 RM1ESCF=        25.6406
 CMAP   =       225.6312
 ------------------------------------------------------------------------------

      R M S  F L U C T U A T I O N S

 NSTEP =    10000   TIME(PS) =      20.000  TEMP(K) =    45.08  PRESS =     0.0
 Etot   =      1088.3940  EKtot   =       524.5368  EPtot      =       565.8606
 BOND   =       120.5952  ANGLE   =       278.6961  DIHED      =        79.3268
 1-4 NB =        20.0237  1-4 EEL =        42.6926  VDWAALS    =        59.4773
 EELEC  =       169.6897  EGB     =       136.6635  RESTRAINT  =         0.0000
 RM1ESCF=         7.5334
 CMAP   =         9.8779
 ------------------------------------------------------------------------------
