-------------------------------------------------------
          Amber 18 SANDER                              2018
          -------------------------------------------------------

  [-O]verwriting output

File Assignments:

 Here is the input file:

MD with GB7
 &cntrl
  nstlim = 10000, dt = 0.002,
  ntwr = 5000, ntwx = 500,
  ntc = 2, ntf = 2,
  ntt = 3, temp0 = 300, gamma_ln = 1.0,
  ntb = 0, igb = 7, cut = 9999.0,
  ifqnt = 1,
 /

 &qmmm
  qmmask = ':305', qmcharge = 0,
  qm_theory = 'RM1', qmcut = 20.0,
 /

--------------------------------------------------------------------------------
   1.  RESOURCE   USE:
--------------------------------------------------------------------------------

 NATOM  =    4677 NTYPES =      23 NBONH =    2309 MBONA  =    2422
 NTHETH =    5217 MTHETA =    3292 NPHIH =   10762 MPHIA  =   10496
 NHPARM =       0 NPARM  =       0 NNB   =   25732 NRES   =     305
 NBONA  =    2422 NTHETA =    3292 NPHIA =   10496 NUMBND =      83
 NUMANG =     193 NPTRA  =     204 NATYP =      44 NPHB   =       0
 IFBOX  =       0 NMXRS  =      31 IFCAP =       0 NEXTRA =       0
 NCOPY  =       0

 Implicit solvent radii are ArgH and AspGluO modified Bondi2 radii (mbondi3)
 Replacing prmtop screening parameters with GBn (igb=7) values

LOADING THE QUANTUM ATOMS AS GROUPS
     Mask :305; matches    31 atoms

--------------------------------------------------------------------------------
   2.  CONTROL  DATA  FOR  THE  RUN
--------------------------------------------------------------------------------

default_name

General flags:
     imin    =       0, nmropt  =       0

Nature and format of input:
     ntx     =       1, irest   =       0, ntrx    =       1

Nature and format of output:
     ntxo    =       2, ntpr    =      50, ntrx    =       1, ntwr    =    5000
     iwrap   =       0, ntwx    =     500, ntwv    =       0, ntwe    =       0
     ioutfm  =       1, ntwprt  =       0, idecomp =       0, rbornstat=      0

Potential function:
     ntf     =       2, ntb     =       0, igb     =       7, nsnb    =      25
     ipol    =       0, gbsa    =       0, iesp    =       0
     dielc   =   1.00000, cut     =9999.00000, intdiel =   1.00000
     saltcon =   0.00000, offset  =   0.09000, gbalpha=    1.09511
     gbbeta  =   1.90793, gbgamma =   2.50798, surften =   0.00500
     rdt     =   0.00000, rgbmax  =  25.00000  extdiel =  78.50000
     alpb  =        0

Frozen or restrained atoms:
     ibelly  =       0, ntr     =       0

Molecular dynamics:
     nstlim  =     10000, nscm    =      1000, nrespa  =         1
     t       =   0.00000, dt      =   0.00200, vlimit  =  20.00000

Langevin dynamics temperature regulation:
     ig      =   71277
     temp0   = 300.00000, tempi   =   0.00000, gamma_ln=   1.00000

SHAKE:
     ntc     =       2, jfastw  =       0
     tol     =   0.00001

QMMM options:
             ifqnt = True       nquant =       31
              qmgb =        2  qmcharge =        0   adjust_q =        2
              spin =        1     qmcut =  20.0000    qmshake =        1
          qmmm_int =        1
     lnk_atomic_no =        1   lnk_dis =   1.0900 lnk_method =        1
          qm_theory =     RM1 verbosity =        0
            qmqmdx = Analytical
      tight_p_conv = False (converge density to 0.05xSqrt[SCFCRT])
           scfconv = 0.100E-07  itrmax =     1000
      printcharges = False      printdipole = False      peptide_corr = False
    qmmmrij_incore = True
  qmqm_erep_incore = True
       pseudo_diag = True pseudo_diag_criteria =   0.0500
      diag_routine =        0
          qm_ewald =        0 qm_pme = False

--------------------------------------------------------------------------------
   3.  ATOMIC COORDINATES AND VELOCITIES
--------------------------------------------------------------------------------

default_name
 begin time read from input coords =     0.000 ps

 Number of triangulated 3-point waters found:        0
QMMM: ADJUSTING CHARGES
QMMM: ----------------------------------------------------------------------
QMMM: adjust_q = 2
QMMM: Uniformly adjusting the charge of MM atoms to conserve total charge.
QMMM:                             qm_charge =    0
QMMM: QM atom RESP charge sum (inc MM link) =    0.001
QMMM: Adjusting each MM atom resp charge by =    0.000
QMMM:          Sum of MM + QM region is now =   -2.999
QMMM: ----------------------------------------------------------------------

QMMM: Link Atom Information
QMMM: ------------------------------------------------------------------------
QMMM: nlink =     0
QMMM: ------------------------------------------------------------------------

  QMMM: QM Region Cartesian Coordinates (*=link atom)
  QMMM: QM_NO.   MM_NO.  ATOM         X         Y         Z
  QMMM:     1     4647      O        8.8944    1.0056   20.7600
  QMMM:     2     4648      C        8.4056    0.0639   21.4061
  QMMM:     3     4649      N        9.1333   -0.6870   22.3175
  QMMM:     4     4650      C       10.4518   -0.2433   22.6371
  QMMM:     5     4651      C       10.6006    0.8962   23.4290
  QMMM:     6     4652      C       11.8789    1.3651   23.6994
  QMMM:     7     4653      C       12.9864    0.6995   23.1895
  QMMM:     8     4654      C       12.8252   -0.4535   22.4310
  QMMM:     9     4655      C       11.5564   -0.9376   22.1425
  QMMM:    10     4656      N        7.0454   -0.2724   21.2542
  QMMM:    11     4657      C        6.3439    0.2847   20.1664
  QMMM:    12     4658      C        5.2010    1.0946   20.3916
  QMMM:    13     4659      C        4.4351    1.4895   19.2833
  QMMM:    14     4660      C        4.9220    1.1732   17.9709
  QMMM:    15     4661      N        6.0382    0.4894   17.7697
  QMMM:    16     4662      C        6.7360    0.0296   18.8613
  QMMM:    17     4663      H        8.8009   -1.5661   22.7100
  QMMM:    18     4664      H        9.7249    1.4224   23.8268
  QMMM:    19     4665      H       12.0024    2.2722   24.2999
  QMMM:    20     4666      H       13.9880    1.1026   23.3572
  QMMM:    21     4667      H       13.7020   -0.9750   22.0359
  QMMM:    22     4668      H       11.4261   -1.8357   21.5281
  QMMM:    23     4669      H        6.5128   -0.7817   21.9623
  QMMM:    24     4670      N        3.2264    2.1512   19.4297
  QMMM:    25     4671      H        4.3843    1.5303   17.0822
  QMMM:    26     4672      H        7.6346   -0.5606   18.6171
  QMMM:    27     4673      C        4.7552    1.5498   21.6784
  QMMM:    28     4674      H        5.3283    1.3274   22.6001
  QMMM:    29     4675      N        3.6409    2.2467   21.8212
  QMMM:    30     4676      C        2.8829    2.4914   20.6721
  QMMM:    31     4677      H        1.9094    3.0187   20.8212

--------------------------------------------------------------------------------
  3.1 QM CALCULATION INFO
--------------------------------------------------------------------------------

QMMM: SINGLET STATE CALCULATION
QMMM: RHF CALCULATION, NO. OF DOUBLY OCCUPIED LEVELS = 49

--------------------------------------------------------------------------------
   4.  RESULTS
 NSTEP =        0   TIME(PS) =       0.000  TEMP(K) =     0.00  PRESS =     0.0
 Etot   =    -11913.0545  EKtot   =         0.0000  EPtot      =    -11913.0545
 BOND   =       143.6577  ANGLE   =       553.0388  DIHED      =      1194.5933
 1-4 NB =       952.0163  1-4 EEL =     12127.6931  VDWAALS    =     -2646.4972
 EELEC  =    -21545.7303  EGB     =     -2956.2573  RESTRAINT  =         0.0000
 RM1ESCF=        44.8216
 CMAP   =       219.6094
 ------------------------------------------------------------------------------

      A V E R A G E S   O V E R   10000 S T E P S

 NSTEP =    10000   TIME(PS) =      20.000  TEMP(K) =   283.94  PRESS =     0.0
 Etot   =     -5183.7343  EKtot   =      3307.0805  EPtot      =     -8490.8148
 BOND   =       881.3463  ANGLE   =      2273.9877  DIHED      =      1655.1176
 1-4 NB =      1042.9274  1-4 EEL =     11991.9247  VDWAALS    =     -2376.9405
 EELEC  =    -20909.4713  EGB     =     -3341.6887  RESTRAINT  =         0.0000
 RM1ESCF=        69.3689
 CMAP   =       222.6131
 ------------------------------------------------------------------------------

      R M S  F L U C T U A T I O N S

 NSTEP =    10000   TIME(PS) =      20.000  TEMP(K) =    44.01  PRESS =     0.0
 Etot   =      1055.8119  EKtot   =       512.6178  EPtot      =       545.1802
 BOND   =       118.3000  ANGLE   =       270.7718  DIHED      =        78.0677
 1-4 NB =        19.8971  1-4 EEL =        43.8121  VDWAALS    =        53.2866
 EELEC  =       134.9456  EGB     =       101.3552  RESTRAINT  =         0.0000
 RM1ESCF=         7.2625
 CMAP   =         9.1337
 ------------------------------------------------------------------------------
