-------------------------------------------------------
          Amber 18 SANDER                              2018
          -------------------------------------------------------

  [-O]verwriting output

File Assignments:

 Here is the input file:

MD with GB7
 &cntrl
  nstlim = 10000, dt = 0.002,
  ntwr = 5000, ntwx = 500,
  ntc = 2, ntf = 2,
  ntt = 3, temp0 = 300, gamma_ln = 1.0,
  ntb = 0, igb = 7, cut = 9999.0,
  ifqnt = 1,
 /

 &qmmm
  qmmask = ':305', qmcharge = 1,
  qm_theory = 'RM1', qmcut = 20.0,
 /

--------------------------------------------------------------------------------
   1.  RESOURCE   USE:
--------------------------------------------------------------------------------

 NATOM  =    4682 NTYPES =      27 NBONH =    2315 MBONA  =    2421
 NTHETH =    5234 MTHETA =    3292 NPHIH =   10783 MPHIA  =   10502
 NHPARM =       0 NPARM  =       0 NNB   =   25781 NRES   =     305
 NBONA  =    2421 NTHETA =    3292 NPHIA =   10502 NUMBND =      94
 NUMANG =     214 NPTRA  =     213 NATYP =      50 NPHB   =       0
 IFBOX  =       0 NMXRS  =      36 IFCAP =       0 NEXTRA =       0
 NCOPY  =       0

 Implicit solvent radii are ArgH and AspGluO modified Bondi2 radii (mbondi3)
 Replacing prmtop screening parameters with GBn (igb=7) values

LOADING THE QUANTUM ATOMS AS GROUPS
     Mask :305; matches    36 atoms

--------------------------------------------------------------------------------
   2.  CONTROL  DATA  FOR  THE  RUN
--------------------------------------------------------------------------------

default_name

General flags:
     imin    =       0, nmropt  =       0

Nature and format of input:
     ntx     =       1, irest   =       0, ntrx    =       1

Nature and format of output:
     ntxo    =       2, ntpr    =      50, ntrx    =       1, ntwr    =    5000
     iwrap   =       0, ntwx    =     500, ntwv    =       0, ntwe    =       0
     ioutfm  =       1, ntwprt  =       0, idecomp =       0, rbornstat=      0

Potential function:
     ntf     =       2, ntb     =       0, igb     =       7, nsnb    =      25
     ipol    =       0, gbsa    =       0, iesp    =       0
     dielc   =   1.00000, cut     =9999.00000, intdiel =   1.00000
     saltcon =   0.00000, offset  =   0.09000, gbalpha=    1.09511
     gbbeta  =   1.90793, gbgamma =   2.50798, surften =   0.00500
     rdt     =   0.00000, rgbmax  =  25.00000  extdiel =  78.50000
     alpb  =        0

Frozen or restrained atoms:
     ibelly  =       0, ntr     =       0

Molecular dynamics:
     nstlim  =     10000, nscm    =      1000, nrespa  =         1
     t       =   0.00000, dt      =   0.00200, vlimit  =  20.00000

Langevin dynamics temperature regulation:
     ig      =   71277
     temp0   = 300.00000, tempi   =   0.00000, gamma_ln=   1.00000

SHAKE:
     ntc     =       2, jfastw  =       0
     tol     =   0.00001

QMMM options:
             ifqnt = True       nquant =       36
              qmgb =        2  qmcharge =        1   adjust_q =        2
              spin =        1     qmcut =  20.0000    qmshake =        1
          qmmm_int =        1
     lnk_atomic_no =        1   lnk_dis =   1.0900 lnk_method =        1
          qm_theory =     RM1 verbosity =        0
            qmqmdx = Analytical
      tight_p_conv = False (converge density to 0.05xSqrt[SCFCRT])
           scfconv = 0.100E-07  itrmax =     1000
      printcharges = False      printdipole = False      peptide_corr = False
    qmmmrij_incore = True
  qmqm_erep_incore = True
       pseudo_diag = True pseudo_diag_criteria =   0.0500
      diag_routine =        0
          qm_ewald =        0 qm_pme = False

--------------------------------------------------------------------------------
   3.  ATOMIC COORDINATES AND VELOCITIES
--------------------------------------------------------------------------------

default_name
 begin time read from input coords =     0.000 ps

 Number of triangulated 3-point waters found:        0
QMMM: ADJUSTING CHARGES
QMMM: ----------------------------------------------------------------------
QMMM: adjust_q = 2
QMMM: Uniformly adjusting the charge of MM atoms to conserve total charge.
QMMM:                             qm_charge =    1
QMMM: QM atom RESP charge sum (inc MM link) =    0.998
QMMM: Adjusting each MM atom resp charge by =   -0.000
QMMM:          Sum of MM + QM region is now =   -2.002
QMMM: ----------------------------------------------------------------------

QMMM: Link Atom Information
QMMM: ------------------------------------------------------------------------
QMMM: nlink =     0
QMMM: ------------------------------------------------------------------------

  QMMM: QM Region Cartesian Coordinates (*=link atom)
  QMMM: QM_NO.   MM_NO.  ATOM         X         Y         Z
  QMMM:     1     4647      C       13.6632   -1.5075   23.4573
  QMMM:     2     4648      N       12.2169   -1.0761   23.6078
  QMMM:     3     4649      O        8.9061    1.4807   21.1420
  QMMM:     4     4650      C       11.3086   -1.9869   22.7773
  QMMM:     5     4651      N        9.7358   -0.1461   22.5384
  QMMM:     6     4652      C        9.8482   -1.5407   22.9807
  QMMM:     7     4653      N        6.1821    0.1382   17.9082
  QMMM:     8     4654      C       10.5687    0.7889   23.3044
  QMMM:     9     4655      N        4.2041    1.4425   18.6548
  QMMM:    10     4656      C       12.0522    0.3767   23.1576
  QMMM:    11     4657      C        8.8804    0.2973   21.5263
  QMMM:    12     4658      N        8.0498   -0.6331   20.9087
  QMMM:    13     4659      C        7.1491   -0.2063   19.9367
  QMMM:    14     4660      C        7.2696   -0.4226   18.5688
  QMMM:    15     4661      C        5.3830    0.7688   18.8561
  QMMM:    16     4662      C        3.6419    1.8888   19.7819
  QMMM:    17     4663      C        4.2109    1.6732   21.0905
  QMMM:    18     4664      N        5.3596    1.0237   21.2881
  QMMM:    19     4665      C        5.9610    0.5631   20.1515
  QMMM:    20     4666      H       11.9293   -1.1714   24.6233
  QMMM:    21     4667      H       11.4545   -3.0583   23.0753
  QMMM:    22     4668      H       11.5991   -1.9561   21.6990
  QMMM:    23     4669      H        9.1868   -2.2489   22.4275
  QMMM:    24     4670      H        9.5136   -1.6433   24.0441
  QMMM:    25     4671      H       10.4638    1.8487   22.9658
  QMMM:    26     4672      H       10.2392    0.8060   24.3771
  QMMM:    27     4673      H       12.7088    1.0611   23.7549
  QMMM:    28     4674      H       12.4051    0.4859   22.1028
  QMMM:    29     4675      H        8.0315   -0.9903   18.0292
  QMMM:    30     4676      H        2.6873    2.4470   19.6706
  QMMM:    31     4677      H        6.0513    0.1362   16.8998
  QMMM:    32     4678      H       13.8269   -2.5373   23.8465
  QMMM:    33     4679      H       13.9870   -1.4960   22.3995
  QMMM:    34     4680      H       14.3469   -0.8467   24.0271
  QMMM:    35     4681      H        3.6889    2.0428   21.9986
  QMMM:    36     4682      H        8.0483   -1.6193   21.1568

--------------------------------------------------------------------------------
  3.1 QM CALCULATION INFO
--------------------------------------------------------------------------------

QMMM: SINGLET STATE CALCULATION
QMMM: RHF CALCULATION, NO. OF DOUBLY OCCUPIED LEVELS = 50

--------------------------------------------------------------------------------
   4.  RESULTS
 NSTEP =        0   TIME(PS) =       0.000  TEMP(K) =     0.00  PRESS =     0.0
 Etot   =    -11716.4351  EKtot   =         0.0000  EPtot      =    -11716.4351
 BOND   =       136.4073  ANGLE   =       554.3139  DIHED      =      1211.2677
 1-4 NB =       967.2789  1-4 EEL =     12159.4295  VDWAALS    =     -2642.8825
 EELEC  =    -21583.8602  EGB     =     -2880.3033  RESTRAINT  =         0.0000
 RM1ESCF=       132.4575
 CMAP   =       229.4562
 ------------------------------------------------------------------------------

      A V E R A G E S   O V E R   10000 S T E P S

 NSTEP =    10000   TIME(PS) =      20.000  TEMP(K) =   284.83  PRESS =     0.0
 Etot   =     -5079.5358  EKtot   =      3319.9459  EPtot      =     -8399.4817
 BOND   =       884.3214  ANGLE   =      2278.4843  DIHED      =      1661.5140
 1-4 NB =      1044.3140  1-4 EEL =     12013.2529  VDWAALS    =     -2373.2646
 EELEC  =    -20966.5785  EGB     =     -3278.9903  RESTRAINT  =         0.0000
 RM1ESCF=       116.2615
 CMAP   =       221.2037
 ------------------------------------------------------------------------------

      R M S  F L U C T U A T I O N S

 NSTEP =    10000   TIME(PS) =      20.000  TEMP(K) =    43.74  PRESS =     0.0
 Etot   =      1045.8264  EKtot   =       509.8046  EPtot      =       538.3348
 BOND   =       117.9280  ANGLE   =       271.1089  DIHED      =        77.9848
 1-4 NB =        19.8771  1-4 EEL =        40.5491  VDWAALS    =        53.1348
 EELEC  =       134.0067  EGB     =       109.1692  RESTRAINT  =         0.0000
 RM1ESCF=        30.8329
 CMAP   =         8.9094
 ------------------------------------------------------------------------------
