-------------------------------------------------------
          Amber 18 SANDER                              2018
          -------------------------------------------------------

  [-O]verwriting output

File Assignments:

 Here is the input file:

MD with GB7
 &cntrl
  nstlim = 10000, dt = 0.002,
  ntwr = 5000, ntwx = 500,
  ntc = 2, ntf = 2,
  ntt = 3, temp0 = 300, gamma_ln = 1.0,
  ntb = 0, igb = 7, cut = 9999.0,
  ifqnt = 1,
 /

 &qmmm
  qmmask = ':305', qmcharge = 1,
  qm_theory = 'RM1', qmcut = 20.0,
 /

--------------------------------------------------------------------------------
   1.  RESOURCE   USE:
--------------------------------------------------------------------------------

 NATOM  =    4682 NTYPES =      29 NBONH =    2314 MBONA  =    2422
 NTHETH =    5232 MTHETA =    3294 NPHIH =   10779 MPHIA  =   10506
 NHPARM =       0 NPARM  =       0 NNB   =   25782 NRES   =     305
 NBONA  =    2422 NTHETA =    3294 NPHIA =   10506 NUMBND =      95
 NUMANG =     216 NPTRA  =     213 NATYP =      52 NPHB   =       0
 IFBOX  =       0 NMXRS  =      36 IFCAP =       0 NEXTRA =       0
 NCOPY  =       0

 Implicit solvent radii are ArgH and AspGluO modified Bondi2 radii (mbondi3)
 Replacing prmtop screening parameters with GBn (igb=7) values

LOADING THE QUANTUM ATOMS AS GROUPS
     Mask :305; matches    36 atoms

--------------------------------------------------------------------------------
   2.  CONTROL  DATA  FOR  THE  RUN
--------------------------------------------------------------------------------

default_name

General flags:
     imin    =       0, nmropt  =       0

Nature and format of input:
     ntx     =       1, irest   =       0, ntrx    =       1

Nature and format of output:
     ntxo    =       2, ntpr    =      50, ntrx    =       1, ntwr    =    5000
     iwrap   =       0, ntwx    =     500, ntwv    =       0, ntwe    =       0
     ioutfm  =       1, ntwprt  =       0, idecomp =       0, rbornstat=      0

Potential function:
     ntf     =       2, ntb     =       0, igb     =       7, nsnb    =      25
     ipol    =       0, gbsa    =       0, iesp    =       0
     dielc   =   1.00000, cut     =9999.00000, intdiel =   1.00000
     saltcon =   0.00000, offset  =   0.09000, gbalpha=    1.09511
     gbbeta  =   1.90793, gbgamma =   2.50798, surften =   0.00500
     rdt     =   0.00000, rgbmax  =  25.00000  extdiel =  78.50000
     alpb  =        0

Frozen or restrained atoms:
     ibelly  =       0, ntr     =       0

Molecular dynamics:
     nstlim  =     10000, nscm    =      1000, nrespa  =         1
     t       =   0.00000, dt      =   0.00200, vlimit  =  20.00000

Langevin dynamics temperature regulation:
     ig      =   71277
     temp0   = 300.00000, tempi   =   0.00000, gamma_ln=   1.00000

SHAKE:
     ntc     =       2, jfastw  =       0
     tol     =   0.00001

QMMM options:
             ifqnt = True       nquant =       36
              qmgb =        2  qmcharge =        1   adjust_q =        2
              spin =        1     qmcut =  20.0000    qmshake =        1
          qmmm_int =        1
     lnk_atomic_no =        1   lnk_dis =   1.0900 lnk_method =        1
          qm_theory =     RM1 verbosity =        0
            qmqmdx = Analytical
      tight_p_conv = False (converge density to 0.05xSqrt[SCFCRT])
           scfconv = 0.100E-07  itrmax =     1000
      printcharges = False      printdipole = False      peptide_corr = False
    qmmmrij_incore = True
  qmqm_erep_incore = True
       pseudo_diag = True pseudo_diag_criteria =   0.0500
      diag_routine =        0
          qm_ewald =        0 qm_pme = False

--------------------------------------------------------------------------------
   3.  ATOMIC COORDINATES AND VELOCITIES
--------------------------------------------------------------------------------

default_name
 begin time read from input coords =     0.000 ps

 Number of triangulated 3-point waters found:        0
QMMM: ADJUSTING CHARGES
QMMM: ----------------------------------------------------------------------
QMMM: adjust_q = 2
QMMM: Uniformly adjusting the charge of MM atoms to conserve total charge.
QMMM:                             qm_charge =    1
QMMM: QM atom RESP charge sum (inc MM link) =    1.000
QMMM: Adjusting each MM atom resp charge by =    0.000
QMMM:          Sum of MM + QM region is now =   -2.000
QMMM: ----------------------------------------------------------------------

QMMM: Link Atom Information
QMMM: ------------------------------------------------------------------------
QMMM: nlink =     0
QMMM: ------------------------------------------------------------------------

  QMMM: QM Region Cartesian Coordinates (*=link atom)
  QMMM: QM_NO.   MM_NO.  ATOM         X         Y         Z
  QMMM:     1     4647      C       13.6821   -1.4018   23.5705
  QMMM:     2     4648      N       12.2249   -0.9958   23.6928
  QMMM:     3     4649      O        8.9614    1.4111   21.0751
  QMMM:     4     4650      C       11.3414   -1.9586   22.8896
  QMMM:     5     4651      N        9.7334   -0.1546   22.5735
  QMMM:     6     4652      C        9.8678   -1.5331   23.0594
  QMMM:     7     4653      N        6.3126    0.1815   17.8445
  QMMM:     8     4654      C       10.5478    0.8230   23.3052
  QMMM:     9     4655      N        4.3334    1.4620   18.5839
  QMMM:    10     4656      C       12.0367    0.4354   23.1831
  QMMM:    11     4657      C        8.9450    0.2375   21.4961
  QMMM:    12     4658      N        8.1026   -0.7160   20.9100
  QMMM:    13     4659      C        7.2293   -0.2773   19.9150
  QMMM:    14     4660      C        7.3761   -0.4221   18.5405
  QMMM:    15     4661      C        5.4949    0.7610   18.8118
  QMMM:    16     4662      C        3.7381    1.8625   19.7282
  QMMM:    17     4663      N        4.1564    1.6222   21.0229
  QMMM:    18     4664      C        5.2943    0.9391   21.2117
  QMMM:    19     4665      C        6.0318    0.4823   20.1049
  QMMM:    20     4666      H       11.9233   -1.0521   24.7066
  QMMM:    21     4667      H       11.5008   -3.0140   23.2413
  QMMM:    22     4668      H       11.6444   -1.9623   21.8121
  QMMM:    23     4669      H        9.2215   -2.2673   22.5185
  QMMM:    24     4670      H        9.5217   -1.5976   24.1255
  QMMM:    25     4671      H       10.4221    1.8686   22.9299
  QMMM:    26     4672      H       10.2051    0.8696   24.3716
  QMMM:    27     4673      H       12.6812    1.1584   23.7486
  QMMM:    28     4674      H       12.3908    0.5106   22.1261
  QMMM:    29     4675      F        8.2969   -1.0798   17.8655
  QMMM:    30     4676      H        2.8054    2.4500   19.6157
  QMMM:    31     4677      H        5.6050    0.7397   22.2559
  QMMM:    32     4678      H        6.2332    0.2481   16.8268
  QMMM:    33     4679      H       13.8598   -2.4206   23.9834
  QMMM:    34     4680      H       14.0171   -1.4042   22.5153
  QMMM:    35     4681      H       14.3431   -0.7117   24.1324
  QMMM:    36     4682      H        8.2326   -1.7225   21.0180

--------------------------------------------------------------------------------
  3.1 QM CALCULATION INFO
--------------------------------------------------------------------------------

QMMM: SINGLET STATE CALCULATION
QMMM: RHF CALCULATION, NO. OF DOUBLY OCCUPIED LEVELS = 53

--------------------------------------------------------------------------------
   4.  RESULTS
 NSTEP =        0   TIME(PS) =       0.000  TEMP(K) =     0.00  PRESS =     0.0
 Etot   =    -11669.8109  EKtot   =         0.0000  EPtot      =    -11669.8109
 BOND   =       130.4237  ANGLE   =       546.8749  DIHED      =      1229.4644
 1-4 NB =       984.8601  1-4 EEL =     12203.7313  VDWAALS    =     -2629.0208
 EELEC  =    -21613.7841  EGB     =     -2854.6482  RESTRAINT  =         0.0000
 RM1ESCF=        91.3176
 CMAP   =       240.9704
 ------------------------------------------------------------------------------

      A V E R A G E S   O V E R   10000 S T E P S

 NSTEP =    10000   TIME(PS) =      20.000  TEMP(K) =   285.33  PRESS =     0.0
 Etot   =     -5121.1282  EKtot   =      3326.0198  EPtot      =     -8447.1480
 BOND   =       882.0953  ANGLE   =      2284.7857  DIHED      =      1655.3903
 1-4 NB =      1045.2897  1-4 EEL =     11991.4992  VDWAALS    =     -2377.2295
 EELEC  =    -20939.5934  EGB     =     -3273.5429  RESTRAINT  =         0.0000
 RM1ESCF=        63.7114
 CMAP   =       220.4462
 ------------------------------------------------------------------------------

      R M S  F L U C T U A T I O N S

 NSTEP =    10000   TIME(PS) =      20.000  TEMP(K) =    43.41  PRESS =     0.0
 Etot   =      1028.7982  EKtot   =       506.0283  EPtot      =       525.1850
 BOND   =       116.8283  ANGLE   =       271.7903  DIHED      =        74.6149
 1-4 NB =        19.4843  1-4 EEL =        45.2269  VDWAALS    =        49.6809
 EELEC  =       134.8993  EGB     =       100.6760  RESTRAINT  =         0.0000
 RM1ESCF=        29.6124
 CMAP   =         8.5970
 ------------------------------------------------------------------------------
