-------------------------------------------------------
          Amber 18 SANDER                              2018
          -------------------------------------------------------

  [-O]verwriting output

File Assignments:

 Here is the input file:

MD with GB7
 &cntrl
  nstlim = 10000, dt = 0.002,
  ntwr = 5000, ntwx = 500,
  ntc = 2, ntf = 2,
  ntt = 3, temp0 = 300, gamma_ln = 1.0,
  ntb = 0, igb = 7, cut = 9999.0,
  ifqnt = 1,
 /

 &qmmm
  qmmask = ':305', qmcharge = 1,
  qm_theory = 'RM1', qmcut = 20.0,
 /

--------------------------------------------------------------------------------
   1.  RESOURCE   USE:
--------------------------------------------------------------------------------

 NATOM  =    4683 NTYPES =      28 NBONH =    2316 MBONA  =    2421
 NTHETH =    5236 MTHETA =    3292 NPHIH =   10788 MPHIA  =   10502
 NHPARM =       0 NPARM  =       0 NNB   =   25788 NRES   =     305
 NBONA  =    2421 NTHETA =    3292 NPHIA =   10502 NUMBND =      95
 NUMANG =     215 NPTRA  =     213 NATYP =      51 NPHB   =       0
 IFBOX  =       0 NMXRS  =      37 IFCAP =       0 NEXTRA =       0
 NCOPY  =       0

 Implicit solvent radii are ArgH and AspGluO modified Bondi2 radii (mbondi3)
 Replacing prmtop screening parameters with GBn (igb=7) values

LOADING THE QUANTUM ATOMS AS GROUPS
     Mask :305; matches    37 atoms

--------------------------------------------------------------------------------
   2.  CONTROL  DATA  FOR  THE  RUN
--------------------------------------------------------------------------------

default_name

General flags:
     imin    =       0, nmropt  =       0

Nature and format of input:
     ntx     =       1, irest   =       0, ntrx    =       1

Nature and format of output:
     ntxo    =       2, ntpr    =      50, ntrx    =       1, ntwr    =    5000
     iwrap   =       0, ntwx    =     500, ntwv    =       0, ntwe    =       0
     ioutfm  =       1, ntwprt  =       0, idecomp =       0, rbornstat=      0

Potential function:
     ntf     =       2, ntb     =       0, igb     =       7, nsnb    =      25
     ipol    =       0, gbsa    =       0, iesp    =       0
     dielc   =   1.00000, cut     =9999.00000, intdiel =   1.00000
     saltcon =   0.00000, offset  =   0.09000, gbalpha=    1.09511
     gbbeta  =   1.90793, gbgamma =   2.50798, surften =   0.00500
     rdt     =   0.00000, rgbmax  =  25.00000  extdiel =  78.50000
     alpb  =        0

Frozen or restrained atoms:
     ibelly  =       0, ntr     =       0

Molecular dynamics:
     nstlim  =     10000, nscm    =      1000, nrespa  =         1
     t       =   0.00000, dt      =   0.00200, vlimit  =  20.00000

Langevin dynamics temperature regulation:
     ig      =   71277
     temp0   = 300.00000, tempi   =   0.00000, gamma_ln=   1.00000

SHAKE:
     ntc     =       2, jfastw  =       0
     tol     =   0.00001

QMMM options:
             ifqnt = True       nquant =       37
              qmgb =        2  qmcharge =        1   adjust_q =        2
              spin =        1     qmcut =  20.0000    qmshake =        1
          qmmm_int =        1
     lnk_atomic_no =        1   lnk_dis =   1.0900 lnk_method =        1
          qm_theory =     RM1 verbosity =        0
            qmqmdx = Analytical
      tight_p_conv = False (converge density to 0.05xSqrt[SCFCRT])
           scfconv = 0.100E-07  itrmax =     1000
      printcharges = False      printdipole = False      peptide_corr = False
    qmmmrij_incore = True
  qmqm_erep_incore = True
       pseudo_diag = True pseudo_diag_criteria =   0.0500
      diag_routine =        0
          qm_ewald =        0 qm_pme = False

--------------------------------------------------------------------------------
   3.  ATOMIC COORDINATES AND VELOCITIES
--------------------------------------------------------------------------------

default_name
 begin time read from input coords =     0.000 ps

 Number of triangulated 3-point waters found:        0
QMMM: ADJUSTING CHARGES
QMMM: ----------------------------------------------------------------------
QMMM: adjust_q = 2
QMMM: Uniformly adjusting the charge of MM atoms to conserve total charge.
QMMM:                             qm_charge =    1
QMMM: QM atom RESP charge sum (inc MM link) =    1.000
QMMM: Adjusting each MM atom resp charge by =   -0.000
QMMM:          Sum of MM + QM region is now =   -2.000
QMMM: ----------------------------------------------------------------------

QMMM: Link Atom Information
QMMM: ------------------------------------------------------------------------
QMMM: nlink =     0
QMMM: ------------------------------------------------------------------------

  QMMM: QM Region Cartesian Coordinates (*=link atom)
  QMMM: QM_NO.   MM_NO.  ATOM         X         Y         Z
  QMMM:     1     4647      C       13.6897   -1.5728   23.3963
  QMMM:     2     4648      N       12.2426   -1.1451   23.5535
  QMMM:     3     4649      O        8.8225    1.4553   21.1820
  QMMM:     4     4650      C       11.3424   -2.0432   22.7015
  QMMM:     5     4651      N        9.7745   -0.2005   22.4674
  QMMM:     6     4652      C        9.8781   -1.6022   22.9033
  QMMM:     7     4653      N        6.0866    0.1077   17.9610
  QMMM:     8     4654      C       10.5912    0.7216   23.2667
  QMMM:     9     4655      N        4.1400    1.4369   18.6976
  QMMM:    10     4656      C       12.0759    0.3148   23.1294
  QMMM:    11     4657      C        8.8605    0.2612   21.5142
  QMMM:    12     4658      N        7.9952   -0.6712   20.9455
  QMMM:    13     4659      C        7.0928   -0.2236   19.9690
  QMMM:    14     4660      C        7.1980   -0.4562   18.6008
  QMMM:    15     4661      C        5.3073    0.7404   18.9232
  QMMM:    16     4662      C        3.5705    1.9110   19.8154
  QMMM:    17     4663      C        4.0798    1.7310   21.1278
  QMMM:    18     4664      C        5.2578    1.0414   21.3296
  QMMM:    19     4665      C        5.9060    0.5330   20.2021
  QMMM:    20     4666      H       11.9441   -1.2542   24.5650
  QMMM:    21     4667      H       11.4801   -3.1197   22.9865
  QMMM:    22     4668      H       11.6381   -1.9862   21.6218
  QMMM:    23     4669      H        9.2203   -2.3002   22.3254
  QMMM:    24     4670      H        9.5420   -1.7210   23.9679
  QMMM:    25     4671      H       10.4878    1.7836   22.9403
  QMMM:    26     4672      H       10.2545    0.7254   24.3344
  QMMM:    27     4673      H       12.7245    0.9869   23.7491
  QMMM:    28     4674      H       12.4464    0.4540   22.0825
  QMMM:    29     4675      H        7.9478   -1.0290   18.0569
  QMMM:    30     4676      H        2.6363    2.4647   19.6510
  QMMM:    31     4677      H        3.5150    2.1530   21.9749
  QMMM:    32     4678      H        5.6712    0.8850   22.3361
  QMMM:    33     4679      H        5.9578    0.1214   16.9516
  QMMM:    34     4680      H       13.8430   -2.6065   23.7693
  QMMM:    35     4681      H       14.0114   -1.5426   22.3374
  QMMM:    36     4682      H       14.3686   -0.9229   23.9834
  QMMM:    37     4683      H        8.1494   -1.6790   20.9956

--------------------------------------------------------------------------------
  3.1 QM CALCULATION INFO
--------------------------------------------------------------------------------

QMMM: SINGLET STATE CALCULATION
QMMM: RHF CALCULATION, NO. OF DOUBLY OCCUPIED LEVELS = 50

--------------------------------------------------------------------------------
   4.  RESULTS
 NSTEP =        0   TIME(PS) =       0.000  TEMP(K) =     0.00  PRESS =     0.0
 Etot   =    -11762.4191  EKtot   =         0.0000  EPtot      =    -11762.4191
 BOND   =       140.0137  ANGLE   =       555.7777  DIHED      =      1200.7775
 1-4 NB =       959.2438  1-4 EEL =     12140.5319  VDWAALS    =     -2648.3664
 EELEC  =    -21562.7231  EGB     =     -2895.7951  RESTRAINT  =         0.0000
 RM1ESCF=       125.7747
 CMAP   =       222.3462
 ------------------------------------------------------------------------------

      A V E R A G E S   O V E R   10000 S T E P S

 NSTEP =    10000   TIME(PS) =      20.000  TEMP(K) =   287.21  PRESS =     0.0
 Etot   =     -5029.5990  EKtot   =      3348.2941  EPtot      =     -8377.8931
 BOND   =       892.2995  ANGLE   =      2294.1868  DIHED      =      1659.8045
 1-4 NB =      1044.8732  1-4 EEL =     11995.6094  VDWAALS    =     -2368.3126
 EELEC  =    -20917.5037  EGB     =     -3314.4894  RESTRAINT  =         0.0000
 RM1ESCF=       111.8532
 CMAP   =       223.7861
 ------------------------------------------------------------------------------

      R M S  F L U C T U A T I O N S

 NSTEP =    10000   TIME(PS) =      20.000  TEMP(K) =    44.79  PRESS =     0.0
 Etot   =      1074.0881  EKtot   =       522.1466  EPtot      =       554.4456
 BOND   =       120.3622  ANGLE   =       276.9708  DIHED      =        78.0452
 1-4 NB =        20.6394  1-4 EEL =        42.8923  VDWAALS    =        54.9779
 EELEC  =       141.8740  EGB     =       113.6041  RESTRAINT  =         0.0000
 RM1ESCF=        38.0914
 CMAP   =         9.0026
 ------------------------------------------------------------------------------
