-------------------------------------------------------
          Amber 18 SANDER                              2018
          -------------------------------------------------------

  [-O]verwriting output

File Assignments:

 Here is the input file:

MD with GB7
 &cntrl
  nstlim = 10000, dt = 0.002,
  ntwr = 5000, ntwx = 500,
  ntc = 2, ntf = 2,
  ntt = 3, temp0 = 300, gamma_ln = 1.0,
  ntb = 0, igb = 7, cut = 9999.0,
  ifqnt = 1,
 /

 &qmmm
  qmmask = ':305', qmcharge = 1,
  qm_theory = 'RM1', qmcut = 20.0,
 /

--------------------------------------------------------------------------------
   1.  RESOURCE   USE:
--------------------------------------------------------------------------------

 NATOM  =    4682 NTYPES =      29 NBONH =    2314 MBONA  =    2422
 NTHETH =    5232 MTHETA =    3294 NPHIH =   10779 MPHIA  =   10506
 NHPARM =       0 NPARM  =       0 NNB   =   25782 NRES   =     305
 NBONA  =    2422 NTHETA =    3294 NPHIA =   10506 NUMBND =      95
 NUMANG =     216 NPTRA  =     213 NATYP =      52 NPHB   =       0
 IFBOX  =       0 NMXRS  =      36 IFCAP =       0 NEXTRA =       0
 NCOPY  =       0

 Implicit solvent radii are ArgH and AspGluO modified Bondi2 radii (mbondi3)
 Replacing prmtop screening parameters with GBn (igb=7) values

LOADING THE QUANTUM ATOMS AS GROUPS
     Mask :305; matches    36 atoms

--------------------------------------------------------------------------------
   2.  CONTROL  DATA  FOR  THE  RUN
--------------------------------------------------------------------------------

default_name

General flags:
     imin    =       0, nmropt  =       0

Nature and format of input:
     ntx     =       1, irest   =       0, ntrx    =       1

Nature and format of output:
     ntxo    =       2, ntpr    =      50, ntrx    =       1, ntwr    =    5000
     iwrap   =       0, ntwx    =     500, ntwv    =       0, ntwe    =       0
     ioutfm  =       1, ntwprt  =       0, idecomp =       0, rbornstat=      0

Potential function:
     ntf     =       2, ntb     =       0, igb     =       7, nsnb    =      25
     ipol    =       0, gbsa    =       0, iesp    =       0
     dielc   =   1.00000, cut     =9999.00000, intdiel =   1.00000
     saltcon =   0.00000, offset  =   0.09000, gbalpha=    1.09511
     gbbeta  =   1.90793, gbgamma =   2.50798, surften =   0.00500
     rdt     =   0.00000, rgbmax  =  25.00000  extdiel =  78.50000
     alpb  =        0

Frozen or restrained atoms:
     ibelly  =       0, ntr     =       0

Molecular dynamics:
     nstlim  =     10000, nscm    =      1000, nrespa  =         1
     t       =   0.00000, dt      =   0.00200, vlimit  =  20.00000

Langevin dynamics temperature regulation:
     ig      =   71277
     temp0   = 300.00000, tempi   =   0.00000, gamma_ln=   1.00000

SHAKE:
     ntc     =       2, jfastw  =       0
     tol     =   0.00001

QMMM options:
             ifqnt = True       nquant =       36
              qmgb =        2  qmcharge =        1   adjust_q =        2
              spin =        1     qmcut =  20.0000    qmshake =        1
          qmmm_int =        1
     lnk_atomic_no =        1   lnk_dis =   1.0900 lnk_method =        1
          qm_theory =     RM1 verbosity =        0
            qmqmdx = Analytical
      tight_p_conv = False (converge density to 0.05xSqrt[SCFCRT])
           scfconv = 0.100E-07  itrmax =     1000
      printcharges = False      printdipole = False      peptide_corr = False
    qmmmrij_incore = True
  qmqm_erep_incore = True
       pseudo_diag = True pseudo_diag_criteria =   0.0500
      diag_routine =        0
          qm_ewald =        0 qm_pme = False

--------------------------------------------------------------------------------
   3.  ATOMIC COORDINATES AND VELOCITIES
--------------------------------------------------------------------------------

default_name
 begin time read from input coords =     0.000 ps

 Number of triangulated 3-point waters found:        0
QMMM: ADJUSTING CHARGES
QMMM: ----------------------------------------------------------------------
QMMM: adjust_q = 2
QMMM: Uniformly adjusting the charge of MM atoms to conserve total charge.
QMMM:                             qm_charge =    1
QMMM: QM atom RESP charge sum (inc MM link) =    1.001
QMMM: Adjusting each MM atom resp charge by =    0.000
QMMM:          Sum of MM + QM region is now =   -1.999
QMMM: ----------------------------------------------------------------------

QMMM: Link Atom Information
QMMM: ------------------------------------------------------------------------
QMMM: nlink =     0
QMMM: ------------------------------------------------------------------------

  QMMM: QM Region Cartesian Coordinates (*=link atom)
  QMMM: QM_NO.   MM_NO.  ATOM         X         Y         Z
  QMMM:     1     4647      C       13.6422   -1.5929   23.3665
  QMMM:     2     4648      N       12.1853   -1.1976   23.5245
  QMMM:     3     4649      O        8.7713    1.3722   21.1402
  QMMM:     4     4650      C       11.3128   -2.0930   22.6411
  QMMM:     5     4651      N        9.7081   -0.2878   22.4359
  QMMM:     6     4652      C        9.8384   -1.6952   22.8437
  QMMM:     7     4653      N        6.0663   -0.0799   17.8414
  QMMM:     8     4654      C       10.5046    0.6456   23.2447
  QMMM:     9     4655      N        4.2223    1.4222   18.5356
  QMMM:    10     4656      C       11.9962    0.2680   23.1343
  QMMM:    11     4657      C        8.8207    0.1738   21.4660
  QMMM:    12     4658      N        7.9796   -0.7724   20.8584
  QMMM:    13     4659      C        7.0924   -0.3342   19.8757
  QMMM:    14     4660      C        7.1239   -0.6814   18.5334
  QMMM:    15     4661      C        5.3595    0.6798   18.7628
  QMMM:    16     4662      C        3.7168    1.9663   19.6604
  QMMM:    17     4663      N        4.2086    1.8558   20.9489
  QMMM:    18     4664      C        5.3338    1.1501   21.1347
  QMMM:    19     4665      C        5.9691    0.5299   20.0482
  QMMM:    20     4666      H       11.8851   -1.3341   24.5355
  QMMM:    21     4667      H       11.4798   -3.1719   22.8986
  QMMM:    22     4668      H       11.6117   -2.0088   21.5644
  QMMM:    23     4669      H        9.1992   -2.4005   22.2554
  QMMM:    24     4670      H        9.4938   -1.8298   23.9041
  QMMM:    25     4671      H       10.3833    1.7095   22.9256
  QMMM:    26     4672      H       10.1453    0.6309   24.3046
  QMMM:    27     4673      H       12.6153    0.9386   23.7834
  QMMM:    28     4674      H       12.3848    0.4396   22.1035
  QMMM:    29     4675      Cl       8.1554   -1.7351   17.8032
  QMMM:    30     4676      H        2.7964    2.5728   19.5373
  QMMM:    31     4677      H        5.7146    1.0660   22.1708
  QMMM:    32     4678      H        5.9397   -0.1271   16.8304
  QMMM:    33     4679      H       13.8183   -2.6307   23.7281
  QMMM:    34     4680      H       13.9664   -1.5460   22.3087
  QMMM:    35     4681      H       14.3088   -0.9332   23.9574
  QMMM:    36     4682      H        8.1453   -1.7831   20.9046

--------------------------------------------------------------------------------
  3.1 QM CALCULATION INFO
--------------------------------------------------------------------------------

QMMM: SINGLET STATE CALCULATION
QMMM: RHF CALCULATION, NO. OF DOUBLY OCCUPIED LEVELS = 53

--------------------------------------------------------------------------------
   4.  RESULTS
 NSTEP =        0   TIME(PS) =       0.000  TEMP(K) =     0.00  PRESS =     0.0
 Etot   =    -11799.0127  EKtot   =         0.0000  EPtot      =    -11799.0127
 BOND   =       141.4583  ANGLE   =       554.0765  DIHED      =      1202.8601
 1-4 NB =       957.9654  1-4 EEL =     12136.3429  VDWAALS    =     -2644.7356
 EELEC  =    -21563.7332  EGB     =     -2895.3238  RESTRAINT  =         0.0000
 RM1ESCF=        91.3452
 CMAP   =       220.7313
 ------------------------------------------------------------------------------

      A V E R A G E S   O V E R   10000 S T E P S

 NSTEP =    10000   TIME(PS) =      20.000  TEMP(K) =   284.13  PRESS =     0.0
 Etot   =     -5103.6758  EKtot   =      3312.0895  EPtot      =     -8415.7652
 BOND   =       879.3077  ANGLE   =      2275.1116  DIHED      =      1657.8679
 1-4 NB =      1045.5427  1-4 EEL =     12001.9320  VDWAALS    =     -2378.9591
 EELEC  =    -20974.7462  EGB     =     -3268.0383  RESTRAINT  =         0.0000
 RM1ESCF=       124.2608
 CMAP   =       221.9558
 ------------------------------------------------------------------------------

      R M S  F L U C T U A T I O N S

 NSTEP =    10000   TIME(PS) =      20.000  TEMP(K) =    43.79  PRESS =     0.0
 Etot   =      1049.7018  EKtot   =       510.4857  EPtot      =       541.5778
 BOND   =       116.4743  ANGLE   =       270.3937  DIHED      =        76.5386
 1-4 NB =        20.1836  1-4 EEL =        42.9065  VDWAALS    =        51.7657
 EELEC  =       121.4933  EGB     =        90.2080  RESTRAINT  =         0.0000
 RM1ESCF=        36.1954
 CMAP   =        10.1153
 ------------------------------------------------------------------------------
