-------------------------------------------------------
          Amber 18 SANDER                              2018
          -------------------------------------------------------

  [-O]verwriting output

File Assignments:

 Here is the input file:

MD with GB7
 &cntrl
  nstlim = 10000, dt = 0.002,
  ntwr = 5000, ntwx = 500,
  ntc = 2, ntf = 2,
  ntt = 3, temp0 = 300, gamma_ln = 1.0,
  ntb = 0, igb = 7, cut = 9999.0,
  ifqnt = 1,
 /

 &qmmm
  qmmask = ':305', qmcharge = 1,
  qm_theory = 'RM1', qmcut = 20.0,
 /

--------------------------------------------------------------------------------
   1.  RESOURCE   USE:
--------------------------------------------------------------------------------

 NATOM  =    4682 NTYPES =      28 NBONH =    2314 MBONA  =    2422
 NTHETH =    5232 MTHETA =    3294 NPHIH =   10779 MPHIA  =   10506
 NHPARM =       0 NPARM  =       0 NNB   =   25781 NRES   =     305
 NBONA  =    2422 NTHETA =    3294 NPHIA =   10506 NUMBND =      94
 NUMANG =     214 NPTRA  =     213 NATYP =      51 NPHB   =       0
 IFBOX  =       0 NMXRS  =      36 IFCAP =       0 NEXTRA =       0
 NCOPY  =       0

 Implicit solvent radii are ArgH and AspGluO modified Bondi2 radii (mbondi3)
 Replacing prmtop screening parameters with GBn (igb=7) values

LOADING THE QUANTUM ATOMS AS GROUPS
     Mask :305; matches    36 atoms

--------------------------------------------------------------------------------
   2.  CONTROL  DATA  FOR  THE  RUN
--------------------------------------------------------------------------------

default_name

General flags:
     imin    =       0, nmropt  =       0

Nature and format of input:
     ntx     =       1, irest   =       0, ntrx    =       1

Nature and format of output:
     ntxo    =       2, ntpr    =      50, ntrx    =       1, ntwr    =    5000
     iwrap   =       0, ntwx    =     500, ntwv    =       0, ntwe    =       0
     ioutfm  =       1, ntwprt  =       0, idecomp =       0, rbornstat=      0

Potential function:
     ntf     =       2, ntb     =       0, igb     =       7, nsnb    =      25
     ipol    =       0, gbsa    =       0, iesp    =       0
     dielc   =   1.00000, cut     =9999.00000, intdiel =   1.00000
     saltcon =   0.00000, offset  =   0.09000, gbalpha=    1.09511
     gbbeta  =   1.90793, gbgamma =   2.50798, surften =   0.00500
     rdt     =   0.00000, rgbmax  =  25.00000  extdiel =  78.50000
     alpb  =        0

Frozen or restrained atoms:
     ibelly  =       0, ntr     =       0

Molecular dynamics:
     nstlim  =     10000, nscm    =      1000, nrespa  =         1
     t       =   0.00000, dt      =   0.00200, vlimit  =  20.00000

Langevin dynamics temperature regulation:
     ig      =   71277
     temp0   = 300.00000, tempi   =   0.00000, gamma_ln=   1.00000

SHAKE:
     ntc     =       2, jfastw  =       0
     tol     =   0.00001

QMMM options:
             ifqnt = True       nquant =       36
              qmgb =        2  qmcharge =        1   adjust_q =        2
              spin =        1     qmcut =  20.0000    qmshake =        1
          qmmm_int =        1
     lnk_atomic_no =        1   lnk_dis =   1.0900 lnk_method =        1
          qm_theory =     RM1 verbosity =        0
            qmqmdx = Analytical
      tight_p_conv = False (converge density to 0.05xSqrt[SCFCRT])
           scfconv = 0.100E-07  itrmax =     1000
      printcharges = False      printdipole = False      peptide_corr = False
    qmmmrij_incore = True
  qmqm_erep_incore = True
       pseudo_diag = True pseudo_diag_criteria =   0.0500
      diag_routine =        0
          qm_ewald =        0 qm_pme = False

--------------------------------------------------------------------------------
   3.  ATOMIC COORDINATES AND VELOCITIES
--------------------------------------------------------------------------------

default_name
 begin time read from input coords =     0.000 ps

 Number of triangulated 3-point waters found:        0
QMMM: ADJUSTING CHARGES
QMMM: ----------------------------------------------------------------------
QMMM: adjust_q = 2
QMMM: Uniformly adjusting the charge of MM atoms to conserve total charge.
QMMM:                             qm_charge =    1
QMMM: QM atom RESP charge sum (inc MM link) =    0.999
QMMM: Adjusting each MM atom resp charge by =   -0.000
QMMM:          Sum of MM + QM region is now =   -2.001
QMMM: ----------------------------------------------------------------------

QMMM: Link Atom Information
QMMM: ------------------------------------------------------------------------
QMMM: nlink =     0
QMMM: ------------------------------------------------------------------------

  QMMM: QM Region Cartesian Coordinates (*=link atom)
  QMMM: QM_NO.   MM_NO.  ATOM         X         Y         Z
  QMMM:     1     4647      C       13.6264   -1.5612   23.3755
  QMMM:     2     4648      N       12.1703   -1.1585   23.5379
  QMMM:     3     4649      O        8.8047    1.4036   21.1188
  QMMM:     4     4650      C       11.2835   -2.0551   22.6693
  QMMM:     5     4651      N        9.6784   -0.2419   22.4760
  QMMM:     6     4652      C        9.8150   -1.6463   22.8852
  QMMM:     7     4653      N        6.0770   -0.0591   17.8382
  QMMM:     8     4654      C       10.4920    0.6919   23.2627
  QMMM:     9     4655      N        4.2147    1.4315   18.5395
  QMMM:    10     4656      C       11.9837    0.3066   23.1390
  QMMM:    11     4657      C        8.8205    0.2113   21.4740
  QMMM:    12     4658      N        8.0009   -0.7345   20.8497
  QMMM:    13     4659      C        7.0969   -0.3052   19.8830
  QMMM:    14     4660      C        7.1317   -0.6462   18.5348
  QMMM:    15     4661      C        5.3585    0.6982   18.7580
  QMMM:    16     4662      C        3.7110    1.9725   19.6516
  QMMM:    17     4663      C        4.3012    1.8160   20.9577
  QMMM:    18     4664      N        5.4212    1.1244   21.1669
  QMMM:    19     4665      C        5.9639    0.5540   20.0520
  QMMM:    20     4666      H       11.8791   -1.2878   24.5517
  QMMM:    21     4667      H       11.4460   -3.1327   22.9330
  QMMM:    22     4668      H       11.5748   -1.9786   21.5903
  QMMM:    23     4669      H        9.1657   -2.3496   22.3085
  QMMM:    24     4670      H        9.4830   -1.7749   23.9485
  QMMM:    25     4671      H       10.3759    1.7544   22.9379
  QMMM:    26     4672      H       10.1496    0.6880   24.3298
  QMMM:    27     4673      H       12.6142    0.9792   23.7779
  QMMM:    28     4674      H       12.3623    0.4664   22.1018
  QMMM:    29     4675      Cl       8.1831   -1.6944   17.8137
  QMMM:    30     4676      H        2.7879    2.5661   19.5247
  QMMM:    31     4677      H        5.9559   -0.1035   16.8242
  QMMM:    32     4678      H       13.8002   -2.5974   23.7435
  QMMM:    33     4679      H       13.9475   -1.5232   22.3161
  QMMM:    34     4680      H       14.2984   -0.8987   23.9588
  QMMM:    35     4681      H        3.8190    2.2670   21.8496
  QMMM:    36     4682      H        8.0629   -1.7432   21.0114

--------------------------------------------------------------------------------
  3.1 QM CALCULATION INFO
--------------------------------------------------------------------------------

QMMM: SINGLET STATE CALCULATION
QMMM: RHF CALCULATION, NO. OF DOUBLY OCCUPIED LEVELS = 53

--------------------------------------------------------------------------------
   4.  RESULTS
 NSTEP =        0   TIME(PS) =       0.000  TEMP(K) =     0.00  PRESS =     0.0
 Etot   =    -11792.9992  EKtot   =         0.0000  EPtot      =    -11792.9992
 BOND   =       140.2377  ANGLE   =       553.3144  DIHED      =      1204.8209
 1-4 NB =       960.1822  1-4 EEL =     12142.5584  VDWAALS    =     -2643.9223
 EELEC  =    -21571.0068  EGB     =     -2887.8431  RESTRAINT  =         0.0000
 RM1ESCF=        85.7956
 CMAP   =       222.8639
 ------------------------------------------------------------------------------

      A V E R A G E S   O V E R   10000 S T E P S

 NSTEP =    10000   TIME(PS) =      20.000  TEMP(K) =   285.54  PRESS =     0.0
 Etot   =     -5073.2689  EKtot   =      3328.4722  EPtot      =     -8401.7411
 BOND   =       883.0112  ANGLE   =      2281.2782  DIHED      =      1661.5548
 1-4 NB =      1044.0254  1-4 EEL =     12007.5596  VDWAALS    =     -2374.1518
 EELEC  =    -20938.0801  EGB     =     -3303.0901  RESTRAINT  =         0.0000
 RM1ESCF=       112.9853
 CMAP   =       223.1665
 ------------------------------------------------------------------------------

      R M S  F L U C T U A T I O N S

 NSTEP =    10000   TIME(PS) =      20.000  TEMP(K) =    44.24  PRESS =     0.0
 Etot   =      1057.8027  EKtot   =       515.6782  EPtot      =       544.5845
 BOND   =       117.8560  ANGLE   =       272.2295  DIHED      =        78.0245
 1-4 NB =        20.1821  1-4 EEL =        40.1075  VDWAALS    =        56.6719
 EELEC  =       137.0822  EGB     =       116.3968  RESTRAINT  =         0.0000
 RM1ESCF=        32.7406
 CMAP   =         9.0583
 ------------------------------------------------------------------------------
