-------------------------------------------------------
          Amber 18 SANDER                              2018
          -------------------------------------------------------

  [-O]verwriting output

File Assignments:

 Here is the input file:

MD with GB7
 &cntrl
  nstlim = 10000, dt = 0.002,
  ntwr = 5000, ntwx = 500,
  ntc = 2, ntf = 2,
  ntt = 3, temp0 = 300, gamma_ln = 1.0,
  ntb = 0, igb = 7, cut = 9999.0,
  ifqnt = 1,
 /

 &qmmm
  qmmask = ':305', qmcharge = 1,
  qm_theory = 'RM1', qmcut = 20.0,
 /

--------------------------------------------------------------------------------
   1.  RESOURCE   USE:
--------------------------------------------------------------------------------

 NATOM  =    4683 NTYPES =      29 NBONH =    2315 MBONA  =    2422
 NTHETH =    5234 MTHETA =    3294 NPHIH =   10784 MPHIA  =   10506
 NHPARM =       0 NPARM  =       0 NNB   =   25788 NRES   =     305
 NBONA  =    2422 NTHETA =    3294 NPHIA =   10506 NUMBND =      95
 NUMANG =     215 NPTRA  =     213 NATYP =      52 NPHB   =       0
 IFBOX  =       0 NMXRS  =      37 IFCAP =       0 NEXTRA =       0
 NCOPY  =       0

 Implicit solvent radii are ArgH and AspGluO modified Bondi2 radii (mbondi3)
 Replacing prmtop screening parameters with GBn (igb=7) values

LOADING THE QUANTUM ATOMS AS GROUPS
     Mask :305; matches    37 atoms

--------------------------------------------------------------------------------
   2.  CONTROL  DATA  FOR  THE  RUN
--------------------------------------------------------------------------------

default_name

General flags:
     imin    =       0, nmropt  =       0

Nature and format of input:
     ntx     =       1, irest   =       0, ntrx    =       1

Nature and format of output:
     ntxo    =       2, ntpr    =      50, ntrx    =       1, ntwr    =    5000
     iwrap   =       0, ntwx    =     500, ntwv    =       0, ntwe    =       0
     ioutfm  =       1, ntwprt  =       0, idecomp =       0, rbornstat=      0

Potential function:
     ntf     =       2, ntb     =       0, igb     =       7, nsnb    =      25
     ipol    =       0, gbsa    =       0, iesp    =       0
     dielc   =   1.00000, cut     =9999.00000, intdiel =   1.00000
     saltcon =   0.00000, offset  =   0.09000, gbalpha=    1.09511
     gbbeta  =   1.90793, gbgamma =   2.50798, surften =   0.00500
     rdt     =   0.00000, rgbmax  =  25.00000  extdiel =  78.50000
     alpb  =        0

Frozen or restrained atoms:
     ibelly  =       0, ntr     =       0

Molecular dynamics:
     nstlim  =     10000, nscm    =      1000, nrespa  =         1
     t       =   0.00000, dt      =   0.00200, vlimit  =  20.00000

Langevin dynamics temperature regulation:
     ig      =   71277
     temp0   = 300.00000, tempi   =   0.00000, gamma_ln=   1.00000

SHAKE:
     ntc     =       2, jfastw  =       0
     tol     =   0.00001

QMMM options:
             ifqnt = True       nquant =       37
              qmgb =        2  qmcharge =        1   adjust_q =        2
              spin =        1     qmcut =  20.0000    qmshake =        1
          qmmm_int =        1
     lnk_atomic_no =        1   lnk_dis =   1.0900 lnk_method =        1
          qm_theory =     RM1 verbosity =        0
            qmqmdx = Analytical
      tight_p_conv = False (converge density to 0.05xSqrt[SCFCRT])
           scfconv = 0.100E-07  itrmax =     1000
      printcharges = False      printdipole = False      peptide_corr = False
    qmmmrij_incore = True
  qmqm_erep_incore = True
       pseudo_diag = True pseudo_diag_criteria =   0.0500
      diag_routine =        0
          qm_ewald =        0 qm_pme = False

--------------------------------------------------------------------------------
   3.  ATOMIC COORDINATES AND VELOCITIES
--------------------------------------------------------------------------------

default_name
 begin time read from input coords =     0.000 ps

 Number of triangulated 3-point waters found:        0
QMMM: ADJUSTING CHARGES
QMMM: ----------------------------------------------------------------------
QMMM: adjust_q = 2
QMMM: Uniformly adjusting the charge of MM atoms to conserve total charge.
QMMM:                             qm_charge =    1
QMMM: QM atom RESP charge sum (inc MM link) =    0.998
QMMM: Adjusting each MM atom resp charge by =   -0.000
QMMM:          Sum of MM + QM region is now =   -2.002
QMMM: ----------------------------------------------------------------------

QMMM: Link Atom Information
QMMM: ------------------------------------------------------------------------
QMMM: nlink =     0
QMMM: ------------------------------------------------------------------------

  QMMM: QM Region Cartesian Coordinates (*=link atom)
  QMMM: QM_NO.   MM_NO.  ATOM         X         Y         Z
  QMMM:     1     4647      C       13.6574   -1.4831   23.4768
  QMMM:     2     4648      N       12.2006   -1.0777   23.6090
  QMMM:     3     4649      O        8.8468    1.3974   21.0902
  QMMM:     4     4650      C       11.3229   -2.0148   22.7734
  QMMM:     5     4651      N        9.7210   -0.2083   22.4886
  QMMM:     6     4652      C        9.8496   -1.5964   22.9495
  QMMM:     7     4653      N        6.1403    0.0140   17.8664
  QMMM:     8     4654      C       10.5233    0.7555   23.2514
  QMMM:     9     4655      N        4.2386    1.4217   18.5759
  QMMM:    10     4656      C       12.0139    0.3684   23.1471
  QMMM:    11     4657      C        8.8668    0.2126   21.4665
  QMMM:    12     4658      N        8.0208   -0.7445   20.8894
  QMMM:    13     4659      C        7.1248   -0.3158   19.9086
  QMMM:    14     4660      C        7.1976   -0.5869   18.5496
  QMMM:    15     4661      C        5.3841    0.7030   18.8176
  QMMM:    16     4662      C        3.6727    1.9173   19.6880
  QMMM:    17     4663      C        4.1620    1.7395   21.0086
  QMMM:    18     4664      C        5.3232    1.0321   21.2277
  QMMM:    19     4665      C        5.9653    0.4981   20.1050
  QMMM:    20     4666      H       11.8982   -1.1679   24.6217
  QMMM:    21     4667      H       11.4795   -3.0799   23.0947
  QMMM:    22     4668      H       11.6260   -1.9899   21.6954
  QMMM:    23     4669      H        9.2066   -2.3199   22.3888
  QMMM:    24     4670      H        9.5026   -1.6867   24.0137
  QMMM:    25     4671      H       10.4051    1.8063   22.8909
  QMMM:    26     4672      H       10.1693    0.7856   24.3144
  QMMM:    27     4673      H       12.6443    1.0684   23.7544
  QMMM:    28     4674      H       12.3915    0.4828   22.1038
  QMMM:    29     4675      Cl       8.2714   -1.5826   17.7815
  QMMM:    30     4676      H        2.7513    2.4967   19.5084
  QMMM:    31     4677      H        6.0450    0.0296   16.8528
  QMMM:    32     4678      H       13.8328   -2.5071   23.8777
  QMMM:    33     4679      H       13.9912   -1.4771   22.4215
  QMMM:    34     4680      H       14.3211   -0.8012   24.0453
  QMMM:    35     4681      H        3.5974    2.1721   21.8463
  QMMM:    36     4682      H        8.1905   -1.7527   20.9571
  QMMM:    37     4683      H        5.7278    0.8657   22.2361

--------------------------------------------------------------------------------
  3.1 QM CALCULATION INFO
--------------------------------------------------------------------------------

QMMM: SINGLET STATE CALCULATION
QMMM: RHF CALCULATION, NO. OF DOUBLY OCCUPIED LEVELS = 53

--------------------------------------------------------------------------------
   4.  RESULTS
 NSTEP =        0   TIME(PS) =       0.000  TEMP(K) =     0.00  PRESS =     0.0
 Etot   =    -11727.8628  EKtot   =         0.0000  EPtot      =    -11727.8628
 BOND   =       139.1427  ANGLE   =       552.7098  DIHED      =      1214.2731
 1-4 NB =       967.3808  1-4 EEL =     12162.0989  VDWAALS    =     -2639.0694
 EELEC  =    -21588.3476  EGB     =     -2870.5704  RESTRAINT  =         0.0000
 RM1ESCF=       103.5216
 CMAP   =       230.9977
 ------------------------------------------------------------------------------

      A V E R A G E S   O V E R   10000 S T E P S

 NSTEP =    10000   TIME(PS) =      20.000  TEMP(K) =   287.08  PRESS =     0.0
 Etot   =     -5015.7268  EKtot   =      3347.0553  EPtot      =     -8362.7821
 BOND   =       889.3654  ANGLE   =      2292.7623  DIHED      =      1661.3822
 1-4 NB =      1044.1480  1-4 EEL =     12013.2945  VDWAALS    =     -2360.1350
 EELEC  =    -20848.5499  EGB     =     -3407.3271  RESTRAINT  =         0.0000
 RM1ESCF=       132.2296
 CMAP   =       220.0478
 ------------------------------------------------------------------------------

      R M S  F L U C T U A T I O N S

 NSTEP =    10000   TIME(PS) =      20.000  TEMP(K) =    44.45  PRESS =     0.0
 Etot   =      1073.8844  EKtot   =       518.2540  EPtot      =       558.0594
 BOND   =       119.4843  ANGLE   =       276.2442  DIHED      =        77.2150
 1-4 NB =        20.1927  1-4 EEL =        38.9688  VDWAALS    =        56.4142
 EELEC  =       161.7534  EGB     =       146.6806  RESTRAINT  =         0.0000
 RM1ESCF=        33.5464
 CMAP   =         8.4613
 ------------------------------------------------------------------------------
