-------------------------------------------------------
          Amber 18 SANDER                              2018
          -------------------------------------------------------

  [-O]verwriting output

File Assignments:

 Here is the input file:

MD with GB7
 &cntrl
  nstlim = 10000, dt = 0.002,
  ntwr = 5000, ntwx = 500,
  ntc = 2, ntf = 2,
  ntt = 3, temp0 = 300, gamma_ln = 1.0,
  ntb = 0, igb = 7, cut = 9999.0,
  ifqnt = 1,
 /

 &qmmm
  qmmask = ':305', qmcharge = 1,
  qm_theory = 'RM1', qmcut = 20.0,
 /

--------------------------------------------------------------------------------
   1.  RESOURCE   USE:
--------------------------------------------------------------------------------

 NATOM  =    4682 NTYPES =      28 NBONH =    2315 MBONA  =    2421
 NTHETH =    5234 MTHETA =    3292 NPHIH =   10783 MPHIA  =   10502
 NHPARM =       0 NPARM  =       0 NNB   =   25782 NRES   =     305
 NBONA  =    2421 NTHETA =    3292 NPHIA =   10502 NUMBND =      95
 NUMANG =     216 NPTRA  =     213 NATYP =      51 NPHB   =       0
 IFBOX  =       0 NMXRS  =      36 IFCAP =       0 NEXTRA =       0
 NCOPY  =       0

 Implicit solvent radii are ArgH and AspGluO modified Bondi2 radii (mbondi3)
 Replacing prmtop screening parameters with GBn (igb=7) values

LOADING THE QUANTUM ATOMS AS GROUPS
     Mask :305; matches    36 atoms

--------------------------------------------------------------------------------
   2.  CONTROL  DATA  FOR  THE  RUN
--------------------------------------------------------------------------------

default_name

General flags:
     imin    =       0, nmropt  =       0

Nature and format of input:
     ntx     =       1, irest   =       0, ntrx    =       1

Nature and format of output:
     ntxo    =       2, ntpr    =      50, ntrx    =       1, ntwr    =    5000
     iwrap   =       0, ntwx    =     500, ntwv    =       0, ntwe    =       0
     ioutfm  =       1, ntwprt  =       0, idecomp =       0, rbornstat=      0

Potential function:
     ntf     =       2, ntb     =       0, igb     =       7, nsnb    =      25
     ipol    =       0, gbsa    =       0, iesp    =       0
     dielc   =   1.00000, cut     =9999.00000, intdiel =   1.00000
     saltcon =   0.00000, offset  =   0.09000, gbalpha=    1.09511
     gbbeta  =   1.90793, gbgamma =   2.50798, surften =   0.00500
     rdt     =   0.00000, rgbmax  =  25.00000  extdiel =  78.50000
     alpb  =        0

Frozen or restrained atoms:
     ibelly  =       0, ntr     =       0

Molecular dynamics:
     nstlim  =     10000, nscm    =      1000, nrespa  =         1
     t       =   0.00000, dt      =   0.00200, vlimit  =  20.00000

Langevin dynamics temperature regulation:
     ig      =   71277
     temp0   = 300.00000, tempi   =   0.00000, gamma_ln=   1.00000

SHAKE:
     ntc     =       2, jfastw  =       0
     tol     =   0.00001

QMMM options:
             ifqnt = True       nquant =       36
              qmgb =        2  qmcharge =        1   adjust_q =        2
              spin =        1     qmcut =  20.0000    qmshake =        1
          qmmm_int =        1
     lnk_atomic_no =        1   lnk_dis =   1.0900 lnk_method =        1
          qm_theory =     RM1 verbosity =        0
            qmqmdx = Analytical
      tight_p_conv = False (converge density to 0.05xSqrt[SCFCRT])
           scfconv = 0.100E-07  itrmax =     1000
      printcharges = False      printdipole = False      peptide_corr = False
    qmmmrij_incore = True
  qmqm_erep_incore = True
       pseudo_diag = True pseudo_diag_criteria =   0.0500
      diag_routine =        0
          qm_ewald =        0 qm_pme = False

--------------------------------------------------------------------------------
   3.  ATOMIC COORDINATES AND VELOCITIES
--------------------------------------------------------------------------------

default_name
 begin time read from input coords =     0.000 ps

 Number of triangulated 3-point waters found:        0
QMMM: ADJUSTING CHARGES
QMMM: ----------------------------------------------------------------------
QMMM: adjust_q = 2
QMMM: Uniformly adjusting the charge of MM atoms to conserve total charge.
QMMM:                             qm_charge =    1
QMMM: QM atom RESP charge sum (inc MM link) =    1.001
QMMM: Adjusting each MM atom resp charge by =    0.000
QMMM:          Sum of MM + QM region is now =   -1.999
QMMM: ----------------------------------------------------------------------

QMMM: Link Atom Information
QMMM: ------------------------------------------------------------------------
QMMM: nlink =     0
QMMM: ------------------------------------------------------------------------

  QMMM: QM Region Cartesian Coordinates (*=link atom)
  QMMM: QM_NO.   MM_NO.  ATOM         X         Y         Z
  QMMM:     1     4647      C       13.6851   -1.5694   23.4028
  QMMM:     2     4648      N       12.2377   -1.1362   23.5566
  QMMM:     3     4649      O        8.8292    1.4810   21.1952
  QMMM:     4     4650      C       11.3381   -2.0315   22.7015
  QMMM:     5     4651      N        9.7807   -0.1899   22.4645
  QMMM:     6     4652      C        9.8742   -1.5903   22.9011
  QMMM:     7     4653      N        6.0899    0.1309   17.9489
  QMMM:     8     4654      C       10.5957    0.7359   23.2630
  QMMM:     9     4655      N        4.1392    1.4472   18.7209
  QMMM:    10     4656      C       12.0781    0.3251   23.1324
  QMMM:    11     4657      C        8.8698    0.2810   21.5171
  QMMM:    12     4658      N        8.0086   -0.6543   20.9281
  QMMM:    13     4659      C        7.1097   -0.2086   19.9520
  QMMM:    14     4660      C        7.1938   -0.4469   18.5875
  QMMM:    15     4661      C        5.3195    0.7672   18.9131
  QMMM:    16     4662      C        3.5980    1.8955   19.8727
  QMMM:    17     4663      N        4.0933    1.7345   21.1526
  QMMM:    18     4664      C        5.2491    1.0735   21.3085
  QMMM:    19     4665      C        5.9285    0.5606   20.1894
  QMMM:    20     4666      H       11.9414   -1.2462   24.5724
  QMMM:    21     4667      H       11.4769   -3.1077   22.9882
  QMMM:    22     4668      H       11.6316   -1.9788   21.6234
  QMMM:    23     4669      H        9.2169   -2.2892   22.3263
  QMMM:    24     4670      H        9.5313   -1.7011   23.9648
  QMMM:    25     4671      H       10.4927    1.8002   22.9365
  QMMM:    26     4672      H       10.2505    0.7390   24.3287
  QMMM:    27     4673      H       12.7250    0.9960   23.7544
  QMMM:    28     4674      H       12.4479    0.4598   22.0875
  QMMM:    29     4675      H        7.9391   -1.0176   18.0313
  QMMM:    30     4676      H        2.6449    2.4538   19.7866
  QMMM:    31     4677      H        5.6174    0.9364   22.3424
  QMMM:    32     4678      H        5.9470    0.1384   16.9440
  QMMM:    33     4679      H       13.8391   -2.6067   23.7763
  QMMM:    34     4680      H       14.0110   -1.5397   22.3457
  QMMM:    35     4681      H       14.3657   -0.9195   23.9882
  QMMM:    36     4682      H        8.1827   -1.6632   20.9668

--------------------------------------------------------------------------------
  3.1 QM CALCULATION INFO
--------------------------------------------------------------------------------

QMMM: SINGLET STATE CALCULATION
QMMM: RHF CALCULATION, NO. OF DOUBLY OCCUPIED LEVELS = 50

--------------------------------------------------------------------------------
   4.  RESULTS
 NSTEP =        0   TIME(PS) =       0.000  TEMP(K) =     0.00  PRESS =     0.0
 Etot   =    -11754.6315  EKtot   =         0.0000  EPtot      =    -11754.6315
 BOND   =       139.9519  ANGLE   =       552.2614  DIHED      =      1201.6262
 1-4 NB =       959.1066  1-4 EEL =     12142.5588  VDWAALS    =     -2645.3748
 EELEC  =    -21566.3327  EGB     =     -2895.6413  RESTRAINT  =         0.0000
 RM1ESCF=       134.0996
 CMAP   =       223.1128
 ------------------------------------------------------------------------------

      A V E R A G E S   O V E R   10000 S T E P S

 NSTEP =    10000   TIME(PS) =      20.000  TEMP(K) =   284.69  PRESS =     0.0
 Etot   =     -5088.1344  EKtot   =      3318.3027  EPtot      =     -8406.4371
 BOND   =       884.2859  ANGLE   =      2277.3018  DIHED      =      1658.8294
 1-4 NB =      1044.0648  1-4 EEL =     12017.6077  VDWAALS    =     -2379.1637
 EELEC  =    -20924.9719  EGB     =     -3323.9395  RESTRAINT  =         0.0000
 RM1ESCF=       118.4174
 CMAP   =       221.1311
 ------------------------------------------------------------------------------

      R M S  F L U C T U A T I O N S

 NSTEP =    10000   TIME(PS) =      20.000  TEMP(K) =    43.98  PRESS =     0.0
 Etot   =      1050.8284  EKtot   =       512.6810  EPtot      =       540.6387
 BOND   =       118.2737  ANGLE   =       271.2305  DIHED      =        78.1061
 1-4 NB =        19.5390  1-4 EEL =        41.1361  VDWAALS    =        53.2874
 EELEC  =       140.0497  EGB     =       115.6027  RESTRAINT  =         0.0000
 RM1ESCF=        32.9217
 CMAP   =         9.1951
 ------------------------------------------------------------------------------
