-------------------------------------------------------
          Amber 18 SANDER                              2018
          -------------------------------------------------------

  [-O]verwriting output

File Assignments:

 Here is the input file:

MD with GB7
 &cntrl
  nstlim = 10000, dt = 0.002,
  ntwr = 5000, ntwx = 500,
  ntc = 2, ntf = 2,
  ntt = 3, temp0 = 300, gamma_ln = 1.0,
  ntb = 0, igb = 7, cut = 9999.0,
  ifqnt = 1,
 /

 &qmmm
  qmmask = ':305', qmcharge = 1,
  qm_theory = 'RM1', qmcut = 20.0,
 /

--------------------------------------------------------------------------------
   1.  RESOURCE   USE:
--------------------------------------------------------------------------------

 NATOM  =    4683 NTYPES =      29 NBONH =    2315 MBONA  =    2422
 NTHETH =    5234 MTHETA =    3294 NPHIH =   10784 MPHIA  =   10506
 NHPARM =       0 NPARM  =       0 NNB   =   25788 NRES   =     305
 NBONA  =    2422 NTHETA =    3294 NPHIA =   10506 NUMBND =      95
 NUMANG =     215 NPTRA  =     213 NATYP =      52 NPHB   =       0
 IFBOX  =       0 NMXRS  =      37 IFCAP =       0 NEXTRA =       0
 NCOPY  =       0

 Implicit solvent radii are ArgH and AspGluO modified Bondi2 radii (mbondi3)
 Replacing prmtop screening parameters with GBn (igb=7) values

LOADING THE QUANTUM ATOMS AS GROUPS
     Mask :305; matches    37 atoms

--------------------------------------------------------------------------------
   2.  CONTROL  DATA  FOR  THE  RUN
--------------------------------------------------------------------------------

default_name

General flags:
     imin    =       0, nmropt  =       0

Nature and format of input:
     ntx     =       1, irest   =       0, ntrx    =       1

Nature and format of output:
     ntxo    =       2, ntpr    =      50, ntrx    =       1, ntwr    =    5000
     iwrap   =       0, ntwx    =     500, ntwv    =       0, ntwe    =       0
     ioutfm  =       1, ntwprt  =       0, idecomp =       0, rbornstat=      0

Potential function:
     ntf     =       2, ntb     =       0, igb     =       7, nsnb    =      25
     ipol    =       0, gbsa    =       0, iesp    =       0
     dielc   =   1.00000, cut     =9999.00000, intdiel =   1.00000
     saltcon =   0.00000, offset  =   0.09000, gbalpha=    1.09511
     gbbeta  =   1.90793, gbgamma =   2.50798, surften =   0.00500
     rdt     =   0.00000, rgbmax  =  25.00000  extdiel =  78.50000
     alpb  =        0

Frozen or restrained atoms:
     ibelly  =       0, ntr     =       0

Molecular dynamics:
     nstlim  =     10000, nscm    =      1000, nrespa  =         1
     t       =   0.00000, dt      =   0.00200, vlimit  =  20.00000

Langevin dynamics temperature regulation:
     ig      =   71277
     temp0   = 300.00000, tempi   =   0.00000, gamma_ln=   1.00000

SHAKE:
     ntc     =       2, jfastw  =       0
     tol     =   0.00001

QMMM options:
             ifqnt = True       nquant =       37
              qmgb =        2  qmcharge =        1   adjust_q =        2
              spin =        1     qmcut =  20.0000    qmshake =        1
          qmmm_int =        1
     lnk_atomic_no =        1   lnk_dis =   1.0900 lnk_method =        1
          qm_theory =     RM1 verbosity =        0
            qmqmdx = Analytical
      tight_p_conv = False (converge density to 0.05xSqrt[SCFCRT])
           scfconv = 0.100E-07  itrmax =     1000
      printcharges = False      printdipole = False      peptide_corr = False
    qmmmrij_incore = True
  qmqm_erep_incore = True
       pseudo_diag = True pseudo_diag_criteria =   0.0500
      diag_routine =        0
          qm_ewald =        0 qm_pme = False

--------------------------------------------------------------------------------
   3.  ATOMIC COORDINATES AND VELOCITIES
--------------------------------------------------------------------------------

default_name
 begin time read from input coords =     0.000 ps

 Number of triangulated 3-point waters found:        0
QMMM: ADJUSTING CHARGES
QMMM: ----------------------------------------------------------------------
QMMM: adjust_q = 2
QMMM: Uniformly adjusting the charge of MM atoms to conserve total charge.
QMMM:                             qm_charge =    1
QMMM: QM atom RESP charge sum (inc MM link) =    1.001
QMMM: Adjusting each MM atom resp charge by =    0.000
QMMM:          Sum of MM + QM region is now =   -1.999
QMMM: ----------------------------------------------------------------------

QMMM: Link Atom Information
QMMM: ------------------------------------------------------------------------
QMMM: nlink =     0
QMMM: ------------------------------------------------------------------------

  QMMM: QM Region Cartesian Coordinates (*=link atom)
  QMMM: QM_NO.   MM_NO.  ATOM         X         Y         Z
  QMMM:     1     4647      C       13.6704   -1.5132   23.4438
  QMMM:     2     4648      N       12.2203   -1.0962   23.5962
  QMMM:     3     4649      O        8.8629    1.3971   21.1143
  QMMM:     4     4650      C       11.3314   -2.0200   22.7616
  QMMM:     5     4651      N        9.7291   -0.2063   22.5095
  QMMM:     6     4652      C        9.8622   -1.5979   22.9603
  QMMM:     7     4653      N        6.1506    0.0714   17.8835
  QMMM:     8     4654      C       10.5510    0.7458   23.2711
  QMMM:     9     4655      N        4.2189    1.3985   18.6162
  QMMM:    10     4656      C       12.0384    0.3549   23.1429
  QMMM:    11     4657      C        8.8779    0.2222   21.4866
  QMMM:    12     4658      N        8.0378   -0.7372   20.9117
  QMMM:    13     4659      C        7.1292   -0.3029   19.9346
  QMMM:    14     4660      C        7.2430   -0.4947   18.5598
  QMMM:    15     4661      C        5.3680    0.6944   18.8592
  QMMM:    16     4662      C        3.6287    1.8702   19.7261
  QMMM:    17     4663      C        4.1107    1.6764   21.0446
  QMMM:    18     4664      C        5.2763    0.9719   21.2730
  QMMM:    19     4665      C        5.9395    0.4657   20.1478
  QMMM:    20     4666      H       11.9283   -1.1936   24.6151
  QMMM:    21     4667      H       11.4805   -3.0896   23.0679
  QMMM:    22     4668      H       11.6189   -1.9819   21.6834
  QMMM:    23     4669      H        9.2081   -2.3116   22.4040
  QMMM:    24     4670      H        9.5217   -1.6874   24.0270
  QMMM:    25     4671      H       10.4296    1.8019   22.9265
  QMMM:    26     4672      H       10.2139    0.7584   24.3403
  QMMM:    27     4673      H       12.6828    1.0453   23.7480
  QMMM:    28     4674      H       12.4053    0.4658   22.0974
  QMMM:    29     4675      F        8.1552   -1.1627   17.8902
  QMMM:    30     4676      H        2.7015    2.4364   19.5422
  QMMM:    31     4677      H        3.5351    2.1017   21.8856
  QMMM:    32     4678      H        5.6666    0.8034   22.2802
  QMMM:    33     4679      H        6.0244    0.0964   16.8764
  QMMM:    34     4680      H       13.8440   -2.5426   23.8337
  QMMM:    35     4681      H       13.9895   -1.4984   22.3842
  QMMM:    36     4682      H       14.3460   -0.8421   24.0114
  QMMM:    37     4683      H        8.1373   -1.7384   21.0427

--------------------------------------------------------------------------------
  3.1 QM CALCULATION INFO
--------------------------------------------------------------------------------

QMMM: SINGLET STATE CALCULATION
QMMM: RHF CALCULATION, NO. OF DOUBLY OCCUPIED LEVELS = 53

--------------------------------------------------------------------------------
   4.  RESULTS
 NSTEP =        0   TIME(PS) =       0.000  TEMP(K) =     0.00  PRESS =     0.0
 Etot   =    -11777.6053  EKtot   =         0.0000  EPtot      =    -11777.6053
 BOND   =       141.8180  ANGLE   =       546.2238  DIHED      =      1207.8443
 1-4 NB =       963.1081  1-4 EEL =     12155.4503  VDWAALS    =     -2641.0882
 EELEC  =    -21576.9021  EGB     =     -2885.8850  RESTRAINT  =         0.0000
 RM1ESCF=        85.7744
 CMAP   =       226.0511
 ------------------------------------------------------------------------------

      A V E R A G E S   O V E R   10000 S T E P S

 NSTEP =    10000   TIME(PS) =      20.000  TEMP(K) =   285.83  PRESS =     0.0
 Etot   =     -5094.6497  EKtot   =      3332.5044  EPtot      =     -8427.1541
 BOND   =       889.0228  ANGLE   =      2287.5809  DIHED      =      1655.5065
 1-4 NB =      1042.4717  1-4 EEL =     12004.1369  VDWAALS    =     -2361.5613
 EELEC  =    -20886.4472  EGB     =     -3348.9209  RESTRAINT  =         0.0000
 RM1ESCF=        71.5620
 CMAP   =       219.4945
 ------------------------------------------------------------------------------

      R M S  F L U C T U A T I O N S

 NSTEP =    10000   TIME(PS) =      20.000  TEMP(K) =    44.28  PRESS =     0.0
 Etot   =      1064.6395  EKtot   =       516.2500  EPtot      =       550.7385
 BOND   =       119.5276  ANGLE   =       275.3699  DIHED      =        75.8658
 1-4 NB =        19.8770  1-4 EEL =        40.3605  VDWAALS    =        56.7529
 EELEC  =       156.7499  EGB     =       130.8321  RESTRAINT  =         0.0000
 RM1ESCF=        26.0478
 CMAP   =         8.6456
 ------------------------------------------------------------------------------
