-------------------------------------------------------
          Amber 18 SANDER                              2018
          -------------------------------------------------------

  [-O]verwriting output

File Assignments:

 Here is the input file:

MD with GB7
 &cntrl
  nstlim = 10000, dt = 0.002,
  ntwr = 5000, ntwx = 500,
  ntc = 2, ntf = 2,
  ntt = 3, temp0 = 300, gamma_ln = 1.0,
  ntb = 0, igb = 7, cut = 9999.0,
  ifqnt = 1,
 /

 &qmmm
  qmmask = ':305', qmcharge = 1,
  qm_theory = 'RM1', qmcut = 20.0,
 /

--------------------------------------------------------------------------------
   1.  RESOURCE   USE:
--------------------------------------------------------------------------------

 NATOM  =    4682 NTYPES =      28 NBONH =    2314 MBONA  =    2422
 NTHETH =    5232 MTHETA =    3294 NPHIH =   10779 MPHIA  =   10506
 NHPARM =       0 NPARM  =       0 NNB   =   25781 NRES   =     305
 NBONA  =    2422 NTHETA =    3294 NPHIA =   10506 NUMBND =      94
 NUMANG =     214 NPTRA  =     213 NATYP =      51 NPHB   =       0
 IFBOX  =       0 NMXRS  =      36 IFCAP =       0 NEXTRA =       0
 NCOPY  =       0

 Implicit solvent radii are ArgH and AspGluO modified Bondi2 radii (mbondi3)
 Replacing prmtop screening parameters with GBn (igb=7) values

LOADING THE QUANTUM ATOMS AS GROUPS
     Mask :305; matches    36 atoms

--------------------------------------------------------------------------------
   2.  CONTROL  DATA  FOR  THE  RUN
--------------------------------------------------------------------------------

default_name

General flags:
     imin    =       0, nmropt  =       0

Nature and format of input:
     ntx     =       1, irest   =       0, ntrx    =       1

Nature and format of output:
     ntxo    =       2, ntpr    =      50, ntrx    =       1, ntwr    =    5000
     iwrap   =       0, ntwx    =     500, ntwv    =       0, ntwe    =       0
     ioutfm  =       1, ntwprt  =       0, idecomp =       0, rbornstat=      0

Potential function:
     ntf     =       2, ntb     =       0, igb     =       7, nsnb    =      25
     ipol    =       0, gbsa    =       0, iesp    =       0
     dielc   =   1.00000, cut     =9999.00000, intdiel =   1.00000
     saltcon =   0.00000, offset  =   0.09000, gbalpha=    1.09511
     gbbeta  =   1.90793, gbgamma =   2.50798, surften =   0.00500
     rdt     =   0.00000, rgbmax  =  25.00000  extdiel =  78.50000
     alpb  =        0

Frozen or restrained atoms:
     ibelly  =       0, ntr     =       0

Molecular dynamics:
     nstlim  =     10000, nscm    =      1000, nrespa  =         1
     t       =   0.00000, dt      =   0.00200, vlimit  =  20.00000

Langevin dynamics temperature regulation:
     ig      =   71277
     temp0   = 300.00000, tempi   =   0.00000, gamma_ln=   1.00000

SHAKE:
     ntc     =       2, jfastw  =       0
     tol     =   0.00001

QMMM options:
             ifqnt = True       nquant =       36
              qmgb =        2  qmcharge =        1   adjust_q =        2
              spin =        1     qmcut =  20.0000    qmshake =        1
          qmmm_int =        1
     lnk_atomic_no =        1   lnk_dis =   1.0900 lnk_method =        1
          qm_theory =     RM1 verbosity =        0
            qmqmdx = Analytical
      tight_p_conv = False (converge density to 0.05xSqrt[SCFCRT])
           scfconv = 0.100E-07  itrmax =     1000
      printcharges = False      printdipole = False      peptide_corr = False
    qmmmrij_incore = True
  qmqm_erep_incore = True
       pseudo_diag = True pseudo_diag_criteria =   0.0500
      diag_routine =        0
          qm_ewald =        0 qm_pme = False

--------------------------------------------------------------------------------
   3.  ATOMIC COORDINATES AND VELOCITIES
--------------------------------------------------------------------------------

default_name
 begin time read from input coords =     0.000 ps

 Number of triangulated 3-point waters found:        0
QMMM: ADJUSTING CHARGES
QMMM: ----------------------------------------------------------------------
QMMM: adjust_q = 2
QMMM: Uniformly adjusting the charge of MM atoms to conserve total charge.
QMMM:                             qm_charge =    1
QMMM: QM atom RESP charge sum (inc MM link) =    1.001
QMMM: Adjusting each MM atom resp charge by =    0.000
QMMM:          Sum of MM + QM region is now =   -1.999
QMMM: ----------------------------------------------------------------------

QMMM: Link Atom Information
QMMM: ------------------------------------------------------------------------
QMMM: nlink =     0
QMMM: ------------------------------------------------------------------------

  QMMM: QM Region Cartesian Coordinates (*=link atom)
  QMMM: QM_NO.   MM_NO.  ATOM         X         Y         Z
  QMMM:     1     4647      C       13.6584   -1.4641   23.5011
  QMMM:     2     4648      N       12.2052   -1.0466   23.6353
  QMMM:     3     4649      O        8.9191    1.4286   21.0864
  QMMM:     4     4650      C       11.3121   -1.9820   22.8174
  QMMM:     5     4651      N        9.7149   -0.1591   22.5469
  QMMM:     6     4652      C        9.8427   -1.5470   23.0053
  QMMM:     7     4653      N        6.2112    0.1167   17.8513
  QMMM:     8     4654      C       10.5423    0.7972   23.2901
  QMMM:     9     4655      N        4.2519    1.4320   18.5989
  QMMM:    10     4656      C       12.0285    0.3990   23.1619
  QMMM:    11     4657      C        8.8989    0.2553   21.4960
  QMMM:    12     4658      N        8.0580   -0.6924   20.8935
  QMMM:    13     4659      C        7.1687   -0.2669   19.9202
  QMMM:    14     4660      C        7.2874   -0.4536   18.5508
  QMMM:    15     4661      C        5.4095    0.7384   18.8111
  QMMM:    16     4662      C        3.6809    1.8789   19.7273
  QMMM:    17     4663      C        4.2281    1.6444   21.0407
  QMMM:    18     4664      N        5.3637    0.9625   21.2464
  QMMM:    19     4665      C        5.9654    0.5068   20.1071
  QMMM:    20     4666      H       11.9096   -1.1218   24.6524
  QMMM:    21     4667      H       11.4644   -3.0432   23.1400
  QMMM:    22     4668      H       11.6055   -1.9622   21.7359
  QMMM:    23     4669      H        9.1896   -2.2679   22.4528
  QMMM:    24     4670      H        9.5043   -1.6344   24.0714
  QMMM:    25     4671      H       10.4242    1.8513   22.9297
  QMMM:    26     4672      H       10.2043    0.8322   24.3589
  QMMM:    27     4673      H       12.6761    1.1005   23.7462
  QMMM:    28     4674      H       12.3858    0.4952   22.1069
  QMMM:    29     4675      F        8.2078   -1.1164   17.8924
  QMMM:    30     4676      H        2.7518    2.4588   19.6060
  QMMM:    31     4677      H        6.1181    0.1586   16.8368
  QMMM:    32     4678      H       13.8271   -2.4859   23.9023
  QMMM:    33     4679      H       13.9853   -1.4629   22.4419
  QMMM:    34     4680      H       14.3301   -0.7856   24.0624
  QMMM:    35     4681      H        3.7085    2.0153   21.9410
  QMMM:    36     4682      H        8.0393   -1.6753   21.1623

--------------------------------------------------------------------------------
  3.1 QM CALCULATION INFO
--------------------------------------------------------------------------------

QMMM: SINGLET STATE CALCULATION
QMMM: RHF CALCULATION, NO. OF DOUBLY OCCUPIED LEVELS = 53

--------------------------------------------------------------------------------
   4.  RESULTS
 NSTEP =        0   TIME(PS) =       0.000  TEMP(K) =     0.00  PRESS =     0.0
 Etot   =    -11731.7082  EKtot   =         0.0000  EPtot      =    -11731.7082
 BOND   =       133.5903  ANGLE   =       560.8552  DIHED      =      1216.4234
 1-4 NB =       971.3502  1-4 EEL =     12165.3710  VDWAALS    =     -2643.5825
 EELEC  =    -21589.9261  EGB     =     -2868.0811  RESTRAINT  =         0.0000
 RM1ESCF=        88.9254
 CMAP   =       233.3659
 ------------------------------------------------------------------------------

      A V E R A G E S   O V E R   10000 S T E P S

 NSTEP =    10000   TIME(PS) =      20.000  TEMP(K) =   285.06  PRESS =     0.0
 Etot   =     -5114.9960  EKtot   =      3322.9582  EPtot      =     -8437.9542
 BOND   =       882.3441  ANGLE   =      2281.7256  DIHED      =      1661.8624
 1-4 NB =      1043.1231  1-4 EEL =     12035.1689  VDWAALS    =     -2372.7358
 EELEC  =    -20958.1002  EGB     =     -3306.7095  RESTRAINT  =         0.0000
 RM1ESCF=        72.2996
 CMAP   =       223.0676
 ------------------------------------------------------------------------------

      R M S  F L U C T U A T I O N S

 NSTEP =    10000   TIME(PS) =      20.000  TEMP(K) =    43.68  PRESS =     0.0
 Etot   =      1042.4297  EKtot   =       509.1725  EPtot      =       535.8620
 BOND   =       117.2073  ANGLE   =       271.4300  DIHED      =        77.4931
 1-4 NB =        19.0139  1-4 EEL =        39.7527  VDWAALS    =        52.7163
 EELEC  =       127.5896  EGB     =       113.5563  RESTRAINT  =         0.0000
 RM1ESCF=        36.3829
 CMAP   =         8.6097
 ------------------------------------------------------------------------------
