-------------------------------------------------------
          Amber 18 SANDER                              2018
          -------------------------------------------------------

  [-O]verwriting output

File Assignments:

 Here is the input file:

MD with GB7
 &cntrl
  nstlim = 10000, dt = 0.002,
  ntwr = 5000, ntwx = 500,
  ntc = 2, ntf = 2,
  ntt = 3, temp0 = 300, gamma_ln = 1.0,
  ntb = 0, igb = 7, cut = 9999.0,
  ifqnt = 1,
 /

 &qmmm
  qmmask = ':305', qmcharge = 0,
  qm_theory = 'RM1', qmcut = 20.0,
 /

--------------------------------------------------------------------------------
   1.  RESOURCE   USE:
--------------------------------------------------------------------------------

 NATOM  =    4694 NTYPES =      29 NBONH =    2317 MBONA  =    2431
 NTHETH =    5234 MTHETA =    3305 NPHIH =   10788 MPHIA  =   10521
 NHPARM =       0 NPARM  =       0 NNB   =   25820 NRES   =     305
 NBONA  =    2431 NTHETA =    3305 NPHIA =   10521 NUMBND =     103
 NUMANG =     232 NPTRA  =     218 NATYP =      54 NPHB   =       0
 IFBOX  =       0 NMXRS  =      48 IFCAP =       0 NEXTRA =       0
 NCOPY  =       0

 Implicit solvent radii are ArgH and AspGluO modified Bondi2 radii (mbondi3)
 Replacing prmtop screening parameters with GBn (igb=7) values

LOADING THE QUANTUM ATOMS AS GROUPS
     Mask :305; matches    48 atoms

--------------------------------------------------------------------------------
   2.  CONTROL  DATA  FOR  THE  RUN
--------------------------------------------------------------------------------

default_name

General flags:
     imin    =       0, nmropt  =       0

Nature and format of input:
     ntx     =       1, irest   =       0, ntrx    =       1

Nature and format of output:
     ntxo    =       2, ntpr    =      50, ntrx    =       1, ntwr    =    5000
     iwrap   =       0, ntwx    =     500, ntwv    =       0, ntwe    =       0
     ioutfm  =       1, ntwprt  =       0, idecomp =       0, rbornstat=      0

Potential function:
     ntf     =       2, ntb     =       0, igb     =       7, nsnb    =      25
     ipol    =       0, gbsa    =       0, iesp    =       0
     dielc   =   1.00000, cut     =9999.00000, intdiel =   1.00000
     saltcon =   0.00000, offset  =   0.09000, gbalpha=    1.09511
     gbbeta  =   1.90793, gbgamma =   2.50798, surften =   0.00500
     rdt     =   0.00000, rgbmax  =  25.00000  extdiel =  78.50000
     alpb  =        0

Frozen or restrained atoms:
     ibelly  =       0, ntr     =       0

Molecular dynamics:
     nstlim  =     10000, nscm    =      1000, nrespa  =         1
     t       =   0.00000, dt      =   0.00200, vlimit  =  20.00000

Langevin dynamics temperature regulation:
     ig      =   71277
     temp0   = 300.00000, tempi   =   0.00000, gamma_ln=   1.00000

SHAKE:
     ntc     =       2, jfastw  =       0
     tol     =   0.00001

QMMM options:
             ifqnt = True       nquant =       48
              qmgb =        2  qmcharge =        0   adjust_q =        2
              spin =        1     qmcut =  20.0000    qmshake =        1
          qmmm_int =        1
     lnk_atomic_no =        1   lnk_dis =   1.0900 lnk_method =        1
          qm_theory =     RM1 verbosity =        0
            qmqmdx = Analytical
      tight_p_conv = False (converge density to 0.05xSqrt[SCFCRT])
           scfconv = 0.100E-07  itrmax =     1000
      printcharges = False      printdipole = False      peptide_corr = False
    qmmmrij_incore = True
  qmqm_erep_incore = True
       pseudo_diag = True pseudo_diag_criteria =   0.0500
      diag_routine =        0
          qm_ewald =        0 qm_pme = False

--------------------------------------------------------------------------------
   3.  ATOMIC COORDINATES AND VELOCITIES
--------------------------------------------------------------------------------

default_name
 begin time read from input coords =     0.000 ps

 Number of triangulated 3-point waters found:        0
QMMM: ADJUSTING CHARGES
QMMM: ----------------------------------------------------------------------
QMMM: adjust_q = 2
QMMM: Uniformly adjusting the charge of MM atoms to conserve total charge.
QMMM:                             qm_charge =    0
QMMM: QM atom RESP charge sum (inc MM link) =    0.002
QMMM: Adjusting each MM atom resp charge by =    0.000
QMMM:          Sum of MM + QM region is now =   -2.998
QMMM: ----------------------------------------------------------------------

QMMM: Link Atom Information
QMMM: ------------------------------------------------------------------------
QMMM: nlink =     0
QMMM: ------------------------------------------------------------------------

  QMMM: QM Region Cartesian Coordinates (*=link atom)
  QMMM: QM_NO.   MM_NO.  ATOM         X         Y         Z
  QMMM:     1     4647      O        9.0998    1.4439   21.0519
  QMMM:     2     4648      N        9.4528    0.1123   22.8718
  QMMM:     3     4649      N        6.1143    0.6486   18.0810
  QMMM:     4     4650      N        4.0158    1.8423   18.6140
  QMMM:     5     4651      C        8.7499    0.4739   21.7194
  QMMM:     6     4652      C        7.5426   -0.4066   21.3463
  QMMM:     7     4653      C        6.8102    0.1726   20.1927
  QMMM:     8     4654      C        7.1180    0.0559   18.8487
  QMMM:     9     4655      C        5.1643    1.1757   18.9567
  QMMM:    10     4656      C        3.2902    2.2416   19.6695
  QMMM:    11     4657      C        3.6239    2.0134   21.0279
  QMMM:    12     4658      C        4.7800    1.3350   21.3478
  QMMM:    13     4659      C        5.5832    0.8981   20.2920
  QMMM:    14     4660      N        8.0746   -1.7200   20.9794
  QMMM:    15     4661      H        6.8407   -0.4698   22.2303
  QMMM:    16     4662      H        7.9660   -0.4121   18.3503
  QMMM:    17     4663      H        2.3717    2.7889   19.4050
  QMMM:    18     4664      H        2.9513    2.3880   21.8111
  QMMM:    19     4665      H        5.0621    1.1396   22.3926
  QMMM:    20     4666      H        6.0749    0.6350   17.0658
  QMMM:    21     4667      H        9.0618   -0.5973   23.4987
  QMMM:    22     4668      C       10.8722    0.1440   22.7982
  QMMM:    23     4669      C       11.6239    1.3415   23.0123
  QMMM:    24     4670      N       11.0517    2.5628   23.2219
  QMMM:    25     4671      N       13.0147    1.3094   22.9948
  QMMM:    26     4672      C       13.6069    0.1821   22.5986
  QMMM:    27     4673      C       12.9131   -0.9812   22.2392
  QMMM:    28     4674      H       14.6955    0.2436   22.5329
  QMMM:    29     4675      C       13.5779   -2.0457   21.6002
  QMMM:    30     4676      C       11.5301   -1.0174   22.4126
  QMMM:    31     4677      H       10.9801   -1.9466   22.2060
  QMMM:    32     4678      N       14.1040   -2.8905   21.0094
  QMMM:    33     4679      H       10.0397    2.6232   23.2745
  QMMM:    34     4680      C       11.8153    3.7935   22.9126
  QMMM:    35     4681      H       12.8423    3.7540   23.3506
  QMMM:    36     4682      H       11.9791    3.8532   21.8073
  QMMM:    37     4683      C       11.0779    5.0321   23.4106
  QMMM:    38     4684      H       11.5073    5.9347   22.9504
  QMMM:    39     4685      H       10.0101    5.0383   23.1516
  QMMM:    40     4686      H       11.1566    5.1525   24.4993
  QMMM:    41     4687      H        8.6568   -1.7845   20.1415
  QMMM:    42     4688      C        7.7407   -2.8737   21.6831
  QMMM:    43     4689      C        8.0279   -4.1450   20.9907
  QMMM:    44     4690      O        7.2337   -2.8045   22.8051
  QMMM:    45     4691      H        8.9039   -4.1683   20.3271
  QMMM:    46     4692      C        7.2784   -5.2189   21.2189
  QMMM:    47     4693      H        7.4762   -6.1705   20.7340
  QMMM:    48     4694      H        6.4338   -5.2497   21.9048

--------------------------------------------------------------------------------
  3.1 QM CALCULATION INFO
--------------------------------------------------------------------------------

QMMM: SINGLET STATE CALCULATION
QMMM: RHF CALCULATION, NO. OF DOUBLY OCCUPIED LEVELS = 73

--------------------------------------------------------------------------------
   4.  RESULTS
 NSTEP =        0   TIME(PS) =       0.000  TEMP(K) =     0.00  PRESS =     0.0
 Etot   =    -11910.0128  EKtot   =         0.0000  EPtot      =    -11910.0128
 BOND   =       142.6116  ANGLE   =       552.1085  DIHED      =      1201.2850
 1-4 NB =       955.0313  1-4 EEL =     12129.0749  VDWAALS    =     -2648.4737
 EELEC  =    -21552.4602  EGB     =     -2945.1478  RESTRAINT  =         0.0000
 RM1ESCF=        37.4949
 CMAP   =       218.4627
 ------------------------------------------------------------------------------

      A V E R A G E S   O V E R   10000 S T E P S

 NSTEP =    10000   TIME(PS) =      20.000  TEMP(K) =   286.14  PRESS =     0.0
 Etot   =     -5117.8169  EKtot   =      3344.8370  EPtot      =     -8462.6539
 BOND   =       884.8717  ANGLE   =      2287.0792  DIHED      =      1663.2302
 1-4 NB =      1044.5596  1-4 EEL =     12018.3888  VDWAALS    =     -2374.9155
 EELEC  =    -20877.0486  EGB     =     -3399.9811  RESTRAINT  =         0.0000
 RM1ESCF=        65.0584
 CMAP   =       226.1033
 ------------------------------------------------------------------------------

      R M S  F L U C T U A T I O N S

 NSTEP =    10000   TIME(PS) =      20.000  TEMP(K) =    44.51  PRESS =     0.0
 Etot   =      1074.0080  EKtot   =       520.2532  EPtot      =       555.6738
 BOND   =       118.9404  ANGLE   =       274.7944  DIHED      =        79.8750
 1-4 NB =        19.5903  1-4 EEL =        40.0917  VDWAALS    =        54.3819
 EELEC  =       146.7308  EGB     =       116.3453  RESTRAINT  =         0.0000
 RM1ESCF=         8.9508
 CMAP   =         8.4813
 ------------------------------------------------------------------------------
