-------------------------------------------------------
          Amber 18 SANDER                              2018
          -------------------------------------------------------

  [-O]verwriting output

File Assignments:

 Here is the input file:

MD with GB7
 &cntrl
  nstlim = 10000, dt = 0.002,
  ntwr = 5000, ntwx = 500,
  ntc = 2, ntf = 2,
  ntt = 3, temp0 = 300, gamma_ln = 1.0,
  ntb = 0, igb = 7, cut = 9999.0,
  ifqnt = 1,
 /

 &qmmm
  qmmask = ':305', qmcharge = 0,
  qm_theory = 'RM1', qmcut = 20.0,
 /

--------------------------------------------------------------------------------
   1.  RESOURCE   USE:
--------------------------------------------------------------------------------

 NATOM  =    4691 NTYPES =      31 NBONH =    2314 MBONA  =    2431
 NTHETH =    5227 MTHETA =    3306 NPHIH =   10771 MPHIA  =   10523
 NHPARM =       0 NPARM  =       0 NNB   =   25801 NRES   =     305
 NBONA  =    2431 NTHETA =    3306 NPHIA =   10523 NUMBND =     102
 NUMANG =     226 NPTRA  =     215 NATYP =      56 NPHB   =       0
 IFBOX  =       0 NMXRS  =      45 IFCAP =       0 NEXTRA =       0
 NCOPY  =       0

 Implicit solvent radii are ArgH and AspGluO modified Bondi2 radii (mbondi3)
 Replacing prmtop screening parameters with GBn (igb=7) values

LOADING THE QUANTUM ATOMS AS GROUPS
     Mask :305; matches    45 atoms

--------------------------------------------------------------------------------
   2.  CONTROL  DATA  FOR  THE  RUN
--------------------------------------------------------------------------------

default_name

General flags:
     imin    =       0, nmropt  =       0

Nature and format of input:
     ntx     =       1, irest   =       0, ntrx    =       1

Nature and format of output:
     ntxo    =       2, ntpr    =      50, ntrx    =       1, ntwr    =    5000
     iwrap   =       0, ntwx    =     500, ntwv    =       0, ntwe    =       0
     ioutfm  =       1, ntwprt  =       0, idecomp =       0, rbornstat=      0

Potential function:
     ntf     =       2, ntb     =       0, igb     =       7, nsnb    =      25
     ipol    =       0, gbsa    =       0, iesp    =       0
     dielc   =   1.00000, cut     =9999.00000, intdiel =   1.00000
     saltcon =   0.00000, offset  =   0.09000, gbalpha=    1.09511
     gbbeta  =   1.90793, gbgamma =   2.50798, surften =   0.00500
     rdt     =   0.00000, rgbmax  =  25.00000  extdiel =  78.50000
     alpb  =        0

Frozen or restrained atoms:
     ibelly  =       0, ntr     =       0

Molecular dynamics:
     nstlim  =     10000, nscm    =      1000, nrespa  =         1
     t       =   0.00000, dt      =   0.00200, vlimit  =  20.00000

Langevin dynamics temperature regulation:
     ig      =   71277
     temp0   = 300.00000, tempi   =   0.00000, gamma_ln=   1.00000

SHAKE:
     ntc     =       2, jfastw  =       0
     tol     =   0.00001

QMMM options:
             ifqnt = True       nquant =       45
              qmgb =        2  qmcharge =        0   adjust_q =        2
              spin =        1     qmcut =  20.0000    qmshake =        1
          qmmm_int =        1
     lnk_atomic_no =        1   lnk_dis =   1.0900 lnk_method =        1
          qm_theory =     RM1 verbosity =        0
            qmqmdx = Analytical
      tight_p_conv = False (converge density to 0.05xSqrt[SCFCRT])
           scfconv = 0.100E-07  itrmax =     1000
      printcharges = False      printdipole = False      peptide_corr = False
    qmmmrij_incore = True
  qmqm_erep_incore = True
       pseudo_diag = True pseudo_diag_criteria =   0.0500
      diag_routine =        0
          qm_ewald =        0 qm_pme = False

--------------------------------------------------------------------------------
   3.  ATOMIC COORDINATES AND VELOCITIES
--------------------------------------------------------------------------------

default_name
 begin time read from input coords =     0.000 ps

 Number of triangulated 3-point waters found:        0
QMMM: ADJUSTING CHARGES
QMMM: ----------------------------------------------------------------------
QMMM: adjust_q = 2
QMMM: Uniformly adjusting the charge of MM atoms to conserve total charge.
QMMM:                             qm_charge =    0
QMMM: QM atom RESP charge sum (inc MM link) =    0.003
QMMM: Adjusting each MM atom resp charge by =    0.000
QMMM:          Sum of MM + QM region is now =   -2.997
QMMM: ----------------------------------------------------------------------

QMMM: Link Atom Information
QMMM: ------------------------------------------------------------------------
QMMM: nlink =     0
QMMM: ------------------------------------------------------------------------

  QMMM: QM Region Cartesian Coordinates (*=link atom)
  QMMM: QM_NO.   MM_NO.  ATOM         X         Y         Z
  QMMM:     1     4647      O        8.9138    1.2004   20.9346
  QMMM:     2     4648      N        9.3854    0.2100   22.9537
  QMMM:     3     4649      N        6.0598    0.2640   18.2413
  QMMM:     4     4650      N        4.0345    1.5459   18.8134
  QMMM:     5     4651      C        8.6841    0.2902   21.7336
  QMMM:     6     4652      N        7.6140   -0.6221   21.4442
  QMMM:     7     4653      C        6.7827   -0.2218   20.3763
  QMMM:     8     4654      C        7.0680   -0.3214   19.0128
  QMMM:     9     4655      C        5.1467    0.8206   19.1486
  QMMM:    10     4656      C        3.3395    1.9871   19.8733
  QMMM:    11     4657      C        3.6664    1.7347   21.2306
  QMMM:    12     4658      C        4.7868    0.9942   21.5430
  QMMM:    13     4659      C        5.5636    0.5276   20.4799
  QMMM:    14     4660      F        8.0899   -0.8805   18.4144
  QMMM:    15     4661      H        2.4535    2.5898   19.6121
  QMMM:    16     4662      H        3.0154    2.1391   22.0198
  QMMM:    17     4663      H        5.0673    0.7702   22.5816
  QMMM:    18     4664      H        6.0345    0.3067   17.2241
  QMMM:    19     4665      H        9.0425   -0.3727   23.7245
  QMMM:    20     4666      C       10.8035    0.2114   22.8064
  QMMM:    21     4667      C       11.5522    1.4162   22.9995
  QMMM:    22     4668      N       10.9844    2.6370   23.1686
  QMMM:    23     4669      N       12.9420    1.3803   22.9984
  QMMM:    24     4670      C       13.5348    0.2508   22.6178
  QMMM:    25     4671      C       12.8420   -0.9179   22.2572
  QMMM:    26     4672      H       14.6241    0.3316   22.5737
  QMMM:    27     4673      C       13.5183   -1.9766   21.6258
  QMMM:    28     4674      C       11.4583   -0.9547   22.4297
  QMMM:    29     4675      H       10.9086   -1.8872   22.2415
  QMMM:    30     4676      N       14.0727   -2.8094   21.0421
  QMMM:    31     4677      H        9.9684    2.7137   23.2186
  QMMM:    32     4678      C       11.7628    3.8703   22.9295
  QMMM:    33     4679      H       12.7786    3.8399   23.3986
  QMMM:    34     4680      H       11.9748    3.9523   21.8344
  QMMM:    35     4681      C       10.9957    5.0882   23.4290
  QMMM:    36     4682      H       11.4825    5.9822   23.0085
  QMMM:    37     4683      H        9.9437    5.1278   23.1123
  QMMM:    38     4684      H       11.0029    5.1753   24.5242
  QMMM:    39     4685      C        7.5581   -1.9693   21.9230
  QMMM:    40     4686      O        8.4522   -2.3522   22.6713
  QMMM:    41     4687      C        6.4346   -2.8233   21.5126
  QMMM:    42     4688      H        5.6902   -2.3993   20.8349
  QMMM:    43     4689      C        6.3649   -4.0678   21.9884
  QMMM:    44     4690      H        7.0758   -4.5133   22.6857
  QMMM:    45     4691      H        5.5620   -4.7561   21.7304

--------------------------------------------------------------------------------
  3.1 QM CALCULATION INFO
--------------------------------------------------------------------------------

QMMM: SINGLET STATE CALCULATION
QMMM: RHF CALCULATION, NO. OF DOUBLY OCCUPIED LEVELS = 73

--------------------------------------------------------------------------------
   4.  RESULTS
 NSTEP =        0   TIME(PS) =       0.000  TEMP(K) =     0.00  PRESS =     0.0
 Etot   =    -11960.1266  EKtot   =         0.0000  EPtot      =    -11960.1266
 BOND   =       143.1361  ANGLE   =       554.2257  DIHED      =      1195.1611
 1-4 NB =       952.1326  1-4 EEL =     12122.6047  VDWAALS    =     -2653.7872
 EELEC  =    -21541.2153  EGB     =     -2955.2429  RESTRAINT  =         0.0000
 RM1ESCF=         7.7146
 CMAP   =       215.1440
 ------------------------------------------------------------------------------

      A V E R A G E S   O V E R   10000 S T E P S

 NSTEP =    10000   TIME(PS) =      20.000  TEMP(K) =   284.58  PRESS =     0.0
 Etot   =     -5201.8601  EKtot   =      3324.9931  EPtot      =     -8526.8532
 BOND   =       880.1349  ANGLE   =      2275.6176  DIHED      =      1656.8909
 1-4 NB =      1044.1283  1-4 EEL =     12005.0800  VDWAALS    =     -2379.1387
 EELEC  =    -20918.3501  EGB     =     -3356.1476  RESTRAINT  =         0.0000
 RM1ESCF=        39.7594
 CMAP   =       225.1722
 ------------------------------------------------------------------------------

      R M S  F L U C T U A T I O N S

 NSTEP =    10000   TIME(PS) =      20.000  TEMP(K) =    44.34  PRESS =     0.0
 Etot   =      1067.2505  EKtot   =       518.0841  EPtot      =       551.1512
 BOND   =       119.4006  ANGLE   =       274.6842  DIHED      =        75.1128
 1-4 NB =        19.9823  1-4 EEL =        40.8039  VDWAALS    =        55.3544
 EELEC  =       131.3837  EGB     =       100.8823  RESTRAINT  =         0.0000
 RM1ESCF=         9.4048
 CMAP   =         8.5022
 ------------------------------------------------------------------------------
