-------------------------------------------------------
          Amber 18 SANDER                              2018
          -------------------------------------------------------

  [-O]verwriting output

File Assignments:

 Here is the input file:

MD with GB7
 &cntrl
  nstlim = 10000, dt = 0.002,
  ntwr = 5000, ntwx = 500,
  ntc = 2, ntf = 2,
  ntt = 3, temp0 = 300, gamma_ln = 1.0,
  ntb = 0, igb = 7, cut = 9999.0,
  ifqnt = 1,
 /

 &qmmm
  qmmask = ':305', qmcharge = 0,
  qm_theory = 'RM1', qmcut = 20.0,
 /

--------------------------------------------------------------------------------
   1.  RESOURCE   USE:
--------------------------------------------------------------------------------

 NATOM  =    4689 NTYPES =      30 NBONH =    2315 MBONA  =    2427
 NTHETH =    5228 MTHETA =    3299 NPHIH =   10772 MPHIA  =   10508
 NHPARM =       0 NPARM  =       0 NNB   =   25787 NRES   =     305
 NBONA  =    2427 NTHETA =    3299 NPHIA =   10508 NUMBND =      98
 NUMANG =     218 NPTRA  =     209 NATYP =      53 NPHB   =       0
 IFBOX  =       0 NMXRS  =      43 IFCAP =       0 NEXTRA =       0
 NCOPY  =       0

 Implicit solvent radii are ArgH and AspGluO modified Bondi2 radii (mbondi3)
 Replacing prmtop screening parameters with GBn (igb=7) values

LOADING THE QUANTUM ATOMS AS GROUPS
     Mask :305; matches    43 atoms

--------------------------------------------------------------------------------
   2.  CONTROL  DATA  FOR  THE  RUN
--------------------------------------------------------------------------------

default_name

General flags:
     imin    =       0, nmropt  =       0

Nature and format of input:
     ntx     =       1, irest   =       0, ntrx    =       1

Nature and format of output:
     ntxo    =       2, ntpr    =      50, ntrx    =       1, ntwr    =    5000
     iwrap   =       0, ntwx    =     500, ntwv    =       0, ntwe    =       0
     ioutfm  =       1, ntwprt  =       0, idecomp =       0, rbornstat=      0

Potential function:
     ntf     =       2, ntb     =       0, igb     =       7, nsnb    =      25
     ipol    =       0, gbsa    =       0, iesp    =       0
     dielc   =   1.00000, cut     =9999.00000, intdiel =   1.00000
     saltcon =   0.00000, offset  =   0.09000, gbalpha=    1.09511
     gbbeta  =   1.90793, gbgamma =   2.50798, surften =   0.00500
     rdt     =   0.00000, rgbmax  =  25.00000  extdiel =  78.50000
     alpb  =        0

Frozen or restrained atoms:
     ibelly  =       0, ntr     =       0

Molecular dynamics:
     nstlim  =     10000, nscm    =      1000, nrespa  =         1
     t       =   0.00000, dt      =   0.00200, vlimit  =  20.00000

Langevin dynamics temperature regulation:
     ig      =   71277
     temp0   = 300.00000, tempi   =   0.00000, gamma_ln=   1.00000

SHAKE:
     ntc     =       2, jfastw  =       0
     tol     =   0.00001

QMMM options:
             ifqnt = True       nquant =       43
              qmgb =        2  qmcharge =        0   adjust_q =        2
              spin =        1     qmcut =  20.0000    qmshake =        1
          qmmm_int =        1
     lnk_atomic_no =        1   lnk_dis =   1.0900 lnk_method =        1
          qm_theory =     RM1 verbosity =        0
            qmqmdx = Analytical
      tight_p_conv = False (converge density to 0.05xSqrt[SCFCRT])
           scfconv = 0.100E-07  itrmax =     1000
      printcharges = False      printdipole = False      peptide_corr = False
    qmmmrij_incore = True
  qmqm_erep_incore = True
       pseudo_diag = True pseudo_diag_criteria =   0.0500
      diag_routine =        0
          qm_ewald =        0 qm_pme = False

--------------------------------------------------------------------------------
   3.  ATOMIC COORDINATES AND VELOCITIES
--------------------------------------------------------------------------------

default_name
 begin time read from input coords =     0.000 ps

 Number of triangulated 3-point waters found:        0
QMMM: ADJUSTING CHARGES
QMMM: ----------------------------------------------------------------------
QMMM: adjust_q = 2
QMMM: Uniformly adjusting the charge of MM atoms to conserve total charge.
QMMM:                             qm_charge =    0
QMMM: QM atom RESP charge sum (inc MM link) =   -0.002
QMMM: Adjusting each MM atom resp charge by =   -0.000
QMMM:          Sum of MM + QM region is now =   -3.002
QMMM: ----------------------------------------------------------------------

QMMM: Link Atom Information
QMMM: ------------------------------------------------------------------------
QMMM: nlink =     0
QMMM: ------------------------------------------------------------------------

  QMMM: QM Region Cartesian Coordinates (*=link atom)
  QMMM: QM_NO.   MM_NO.  ATOM         X         Y         Z
  QMMM:     1     4647      O        8.6312    1.0147   20.8029
  QMMM:     2     4648      C        8.1462    0.0633   21.4358
  QMMM:     3     4649      N        8.8628   -0.6617   22.3858
  QMMM:     4     4650      C       10.2211   -0.3037   22.5809
  QMMM:     5     4651      C       10.5469    0.9205   23.2533
  QMMM:     6     4652      N       11.8610    1.3488   23.3596
  QMMM:     7     4653      C       12.8093    0.5427   22.8522
  QMMM:     8     4654      C       12.5434   -0.6775   22.2182
  QMMM:     9     4655      C       11.2218   -1.1079   22.0733
  QMMM:    10     4656      N        6.7873   -0.3022   21.2553
  QMMM:    11     4657      C        6.1287    0.2277   20.1051
  QMMM:    12     4658      C        5.0107    1.0383   20.2658
  QMMM:    13     4659      C        4.4234    1.5888   19.1127
  QMMM:    14     4660      C        5.0051    1.2940   17.8579
  QMMM:    15     4661      N        6.0927    0.5140   17.7144
  QMMM:    16     4662      C        6.6478   -0.0188   18.8195
  QMMM:    17     4663      H        8.5683   -1.5756   22.7415
  QMMM:    18     4664      N        9.5663    1.6686   23.8358
  QMMM:    19     4665      H       13.8337    0.9280   22.9632
  QMMM:    20     4666      C       13.5298   -1.4608   21.5788
  QMMM:    21     4667      H       10.9948   -2.0477   21.5478
  QMMM:    22     4668      C        6.0956   -1.2209   22.1421
  QMMM:    23     4669      H        4.6057    1.2560   21.2624
  QMMM:    24     4670      N        3.2626    2.3414   19.1998
  QMMM:    25     4671      H        4.6057    1.7221   16.9318
  QMMM:    26     4672      H        7.5279   -0.6566   18.6543
  QMMM:    27     4673      H        3.0636    2.8004   20.0780
  QMMM:    28     4674      H        3.0016    2.8812   18.3888
  QMMM:    29     4675      N       14.2530   -2.1033   20.9518
  QMMM:    30     4676      C        9.7332    3.0839   24.1955
  QMMM:    31     4677      H        8.6207    1.2939   23.8759
  QMMM:    32     4678      C        8.5093    3.5510   24.9827
  QMMM:    33     4679      H       10.6719    3.2446   24.7702
  QMMM:    34     4680      H        9.8617    3.6950   23.2707
  QMMM:    35     4681      H        8.5570    4.6336   25.1758
  QMMM:    36     4682      H        8.4167    3.0455   25.9557
  QMMM:    37     4683      H        7.5638    3.3773   24.4451
  QMMM:    38     4684      C        6.2781   -0.9998   23.5795
  QMMM:    39     4685      O        5.4211   -2.0907   21.6267
  QMMM:    40     4686      H        6.6041   -0.0028   23.8924
  QMMM:    41     4687      C        5.9657   -1.9535   24.4604
  QMMM:    42     4688      H        5.6061   -2.9472   24.1907
  QMMM:    43     4689      H        6.0586   -1.7998   25.5388

--------------------------------------------------------------------------------
  3.1 QM CALCULATION INFO
--------------------------------------------------------------------------------

QMMM: SINGLET STATE CALCULATION
QMMM: RHF CALCULATION, NO. OF DOUBLY OCCUPIED LEVELS = 66

--------------------------------------------------------------------------------
   4.  RESULTS
 NSTEP =        0   TIME(PS) =       0.000  TEMP(K) =     0.00  PRESS =     0.0
 Etot   =    -11975.6333  EKtot   =         0.0000  EPtot      =    -11975.6333
 BOND   =       143.1304  ANGLE   =       552.9695  DIHED      =      1188.5929
 1-4 NB =       950.0145  1-4 EEL =     12120.4192  VDWAALS    =     -2650.0348
 EELEC  =    -21541.2738  EGB     =     -2953.1669  RESTRAINT  =         0.0000
 RM1ESCF=        -3.8557
 CMAP   =       217.5715
 ------------------------------------------------------------------------------

      A V E R A G E S   O V E R   10000 S T E P S

 NSTEP =    10000   TIME(PS) =      20.000  TEMP(K) =   285.05  PRESS =     0.0
 Etot   =     -5177.9616  EKtot   =      3328.4553  EPtot      =     -8506.4169
 BOND   =       884.9879  ANGLE   =      2277.7779  DIHED      =      1658.3021
 1-4 NB =      1042.5787  1-4 EEL =     12006.5561  VDWAALS    =     -2367.2093
 EELEC  =    -20895.4809  EGB     =     -3366.3114  RESTRAINT  =         0.0000
 RM1ESCF=        26.9175
 CMAP   =       225.4643
 ------------------------------------------------------------------------------

      R M S  F L U C T U A T I O N S

 NSTEP =    10000   TIME(PS) =      20.000  TEMP(K) =    44.86  PRESS =     0.0
 Etot   =      1081.1125  EKtot   =       523.8189  EPtot      =       559.1787
 BOND   =       119.7365  ANGLE   =       274.9635  DIHED      =        79.9780
 1-4 NB =        19.8360  1-4 EEL =        40.7600  VDWAALS    =        57.1424
 EELEC  =       128.9720  EGB     =        95.4180  RESTRAINT  =         0.0000
 RM1ESCF=         8.7579
 CMAP   =         8.4095
 ------------------------------------------------------------------------------
