-------------------------------------------------------
          Amber 18 SANDER                              2018
          -------------------------------------------------------

  [-O]verwriting output

File Assignments:

 Here is the input file:

MD with GB7
 &cntrl
  nstlim = 10000, dt = 0.002,
  ntwr = 5000, ntwx = 500,
  ntc = 2, ntf = 2,
  ntt = 3, temp0 = 300, gamma_ln = 1.0,
  ntb = 0, igb = 7, cut = 9999.0,
  ifqnt = 1,
 /

 &qmmm
  qmmask = ':305', qmcharge = 0,
  qm_theory = 'RM1', qmcut = 20.0,
 /

--------------------------------------------------------------------------------
   1.  RESOURCE   USE:
--------------------------------------------------------------------------------

 NATOM  =    4694 NTYPES =      30 NBONH =    2316 MBONA  =    2432
 NTHETH =    5232 MTHETA =    3307 NPHIH =   10784 MPHIA  =   10525
 NHPARM =       0 NPARM  =       0 NNB   =   25820 NRES   =     305
 NBONA  =    2432 NTHETA =    3307 NPHIA =   10525 NUMBND =     103
 NUMANG =     232 NPTRA  =     218 NATYP =      55 NPHB   =       0
 IFBOX  =       0 NMXRS  =      48 IFCAP =       0 NEXTRA =       0
 NCOPY  =       0

 Implicit solvent radii are ArgH and AspGluO modified Bondi2 radii (mbondi3)
 Replacing prmtop screening parameters with GBn (igb=7) values

LOADING THE QUANTUM ATOMS AS GROUPS
     Mask :305; matches    48 atoms

--------------------------------------------------------------------------------
   2.  CONTROL  DATA  FOR  THE  RUN
--------------------------------------------------------------------------------

default_name

General flags:
     imin    =       0, nmropt  =       0

Nature and format of input:
     ntx     =       1, irest   =       0, ntrx    =       1

Nature and format of output:
     ntxo    =       2, ntpr    =      50, ntrx    =       1, ntwr    =    5000
     iwrap   =       0, ntwx    =     500, ntwv    =       0, ntwe    =       0
     ioutfm  =       1, ntwprt  =       0, idecomp =       0, rbornstat=      0

Potential function:
     ntf     =       2, ntb     =       0, igb     =       7, nsnb    =      25
     ipol    =       0, gbsa    =       0, iesp    =       0
     dielc   =   1.00000, cut     =9999.00000, intdiel =   1.00000
     saltcon =   0.00000, offset  =   0.09000, gbalpha=    1.09511
     gbbeta  =   1.90793, gbgamma =   2.50798, surften =   0.00500
     rdt     =   0.00000, rgbmax  =  25.00000  extdiel =  78.50000
     alpb  =        0

Frozen or restrained atoms:
     ibelly  =       0, ntr     =       0

Molecular dynamics:
     nstlim  =     10000, nscm    =      1000, nrespa  =         1
     t       =   0.00000, dt      =   0.00200, vlimit  =  20.00000

Langevin dynamics temperature regulation:
     ig      =   71277
     temp0   = 300.00000, tempi   =   0.00000, gamma_ln=   1.00000

SHAKE:
     ntc     =       2, jfastw  =       0
     tol     =   0.00001

QMMM options:
             ifqnt = True       nquant =       48
              qmgb =        2  qmcharge =        0   adjust_q =        2
              spin =        1     qmcut =  20.0000    qmshake =        1
          qmmm_int =        1
     lnk_atomic_no =        1   lnk_dis =   1.0900 lnk_method =        1
          qm_theory =     RM1 verbosity =        0
            qmqmdx = Analytical
      tight_p_conv = False (converge density to 0.05xSqrt[SCFCRT])
           scfconv = 0.100E-07  itrmax =     1000
      printcharges = False      printdipole = False      peptide_corr = False
    qmmmrij_incore = True
  qmqm_erep_incore = True
       pseudo_diag = True pseudo_diag_criteria =   0.0500
      diag_routine =        0
          qm_ewald =        0 qm_pme = False

--------------------------------------------------------------------------------
   3.  ATOMIC COORDINATES AND VELOCITIES
--------------------------------------------------------------------------------

default_name
 begin time read from input coords =     0.000 ps

 Number of triangulated 3-point waters found:        0
QMMM: ADJUSTING CHARGES
QMMM: ----------------------------------------------------------------------
QMMM: adjust_q = 2
QMMM: Uniformly adjusting the charge of MM atoms to conserve total charge.
QMMM:                             qm_charge =    0
QMMM: QM atom RESP charge sum (inc MM link) =    0.001
QMMM: Adjusting each MM atom resp charge by =    0.000
QMMM:          Sum of MM + QM region is now =   -2.999
QMMM: ----------------------------------------------------------------------

QMMM: Link Atom Information
QMMM: ------------------------------------------------------------------------
QMMM: nlink =     0
QMMM: ------------------------------------------------------------------------

  QMMM: QM Region Cartesian Coordinates (*=link atom)
  QMMM: QM_NO.   MM_NO.  ATOM         X         Y         Z
  QMMM:     1     4647      O        9.0924    1.4426   21.0437
  QMMM:     2     4648      N        9.4502    0.1495   22.8914
  QMMM:     3     4649      N        6.0491    0.6438   18.0987
  QMMM:     4     4650      N        3.9664    1.8309   18.6636
  QMMM:     5     4651      C        8.7440    0.4931   21.7357
  QMMM:     6     4652      C        7.5365   -0.3956   21.3851
  QMMM:     7     4653      C        6.7780    0.1611   20.2401
  QMMM:     8     4654      C        7.0577    0.0676   18.8847
  QMMM:     9     4655      C        5.1127    1.1613   19.0004
  QMMM:    10     4656      C        3.2518    2.2390   19.7266
  QMMM:    11     4657      C        3.6005    2.0166   21.0799
  QMMM:    12     4658      C        4.7554    1.3306   21.3931
  QMMM:    13     4659      C        5.5455    0.8801   20.3335
  QMMM:    14     4660      N        8.0926   -1.7063   21.0346
  QMMM:    15     4661      H        6.8398   -0.4552   22.2732
  QMMM:    16     4662      F        8.0943   -0.4557   18.2744
  QMMM:    17     4663      H        2.3331    2.7904   19.4653
  QMMM:    18     4664      H        2.9414    2.4052   21.8701
  QMMM:    19     4665      H        5.0499    1.1464   22.4384
  QMMM:    20     4666      H        6.0052    0.6340   17.0839
  QMMM:    21     4667      H        9.0547   -0.5309   23.5426
  QMMM:    22     4668      C       10.8690    0.1745   22.8050
  QMMM:    23     4669      C       11.6248    1.3720   23.0093
  QMMM:    24     4670      N       11.0645    2.5955   23.2240
  QMMM:    25     4671      N       13.0123    1.3335   22.9839
  QMMM:    26     4672      C       13.5997    0.2018   22.5967
  QMMM:    27     4673      C       12.9041   -0.9650   22.2512
  QMMM:    28     4674      H       14.6879    0.2855   22.5302
  QMMM:    29     4675      C       13.5623   -2.0423   21.6160
  QMMM:    30     4676      C       11.5187   -0.9931   22.4248
  QMMM:    31     4677      H       10.9596   -1.9185   22.2263
  QMMM:    32     4678      N       14.0851   -2.8895   21.0351
  QMMM:    33     4679      H       10.0490    2.6707   23.2744
  QMMM:    34     4680      C       11.8318    3.8239   22.9270
  QMMM:    35     4681      H       12.8638    3.8038   23.3641
  QMMM:    36     4682      H       12.0099    3.8921   21.8245
  QMMM:    37     4683      C       11.0842    5.0567   23.4264
  QMMM:    38     4684      H       11.5406    5.9421   22.9647
  QMMM:    39     4685      H       10.0163    5.0770   23.1649
  QMMM:    40     4686      H       11.1303    5.1754   24.5168
  QMMM:    41     4687      H        8.7598   -1.7523   20.2617
  QMMM:    42     4688      C        7.7174   -2.8706   21.6958
  QMMM:    43     4689      C        8.0859   -4.1349   21.0275
  QMMM:    44     4690      O        7.1139   -2.8213   22.7698
  QMMM:    45     4691      H        8.9596   -4.1268   20.3579
  QMMM:    46     4692      C        7.4014   -5.2452   21.2674
  QMMM:    47     4693      H        7.6469   -6.1889   20.7831
  QMMM:    48     4694      H        6.5464   -5.3165   21.9386

--------------------------------------------------------------------------------
  3.1 QM CALCULATION INFO
--------------------------------------------------------------------------------

QMMM: SINGLET STATE CALCULATION
QMMM: RHF CALCULATION, NO. OF DOUBLY OCCUPIED LEVELS = 76

--------------------------------------------------------------------------------
   4.  RESULTS
 NSTEP =        0   TIME(PS) =       0.000  TEMP(K) =     0.00  PRESS =     0.0
 Etot   =    -11946.7965  EKtot   =         0.0000  EPtot      =    -11946.7965
 BOND   =       143.3647  ANGLE   =       552.6735  DIHED      =      1201.6294
 1-4 NB =       956.0479  1-4 EEL =     12129.0707  VDWAALS    =     -2646.1992
 EELEC  =    -21554.8662  EGB     =     -2946.3380  RESTRAINT  =         0.0000
 RM1ESCF=        -0.6849
 CMAP   =       218.5055
 ------------------------------------------------------------------------------

      A V E R A G E S   O V E R   10000 S T E P S

 NSTEP =    10000   TIME(PS) =      20.000  TEMP(K) =   285.63  PRESS =     0.0
 Etot   =     -5162.8148  EKtot   =      3339.2402  EPtot      =     -8502.0550
 BOND   =       883.8299  ANGLE   =      2283.0843  DIHED      =      1656.8233
 1-4 NB =      1045.2892  1-4 EEL =     12008.9668  VDWAALS    =     -2364.0328
 EELEC  =    -20818.2526  EGB     =     -3453.1948  RESTRAINT  =         0.0000
 RM1ESCF=        32.2716
 CMAP   =       223.1600
 ------------------------------------------------------------------------------

      R M S  F L U C T U A T I O N S

 NSTEP =    10000   TIME(PS) =      20.000  TEMP(K) =    44.45  PRESS =     0.0
 Etot   =      1076.6584  EKtot   =       519.6690  EPtot      =       559.0284
 BOND   =       119.1190  ANGLE   =       273.9296  DIHED      =        78.1952
 1-4 NB =        19.8596  1-4 EEL =        39.7924  VDWAALS    =        58.7071
 EELEC  =       163.5369  EGB     =       128.4467  RESTRAINT  =         0.0000
 RM1ESCF=        10.0827
 CMAP   =         8.5792
 ------------------------------------------------------------------------------
