-------------------------------------------------------
          Amber 18 SANDER                              2018
          -------------------------------------------------------

  [-O]verwriting output

File Assignments:

 Here is the input file:

MD with GB7
 &cntrl
  nstlim = 10000, dt = 0.002,
  ntwr = 5000, ntwx = 500,
  ntc = 2, ntf = 2,
  ntt = 3, temp0 = 300, gamma_ln = 1.0,
  ntb = 0, igb = 7, cut = 9999.0,
  ifqnt = 1,
 /

 &qmmm
  qmmask = ':305', qmcharge = 0,
  qm_theory = 'RM1', qmcut = 20.0,
 /

--------------------------------------------------------------------------------
   1.  RESOURCE   USE:
--------------------------------------------------------------------------------

 NATOM  =    4689 NTYPES =      31 NBONH =    2314 MBONA  =    2428
 NTHETH =    5226 MTHETA =    3301 NPHIH =   10768 MPHIA  =   10512
 NHPARM =       0 NPARM  =       0 NNB   =   25787 NRES   =     305
 NBONA  =    2428 NTHETA =    3301 NPHIA =   10512 NUMBND =      99
 NUMANG =     220 NPTRA  =     209 NATYP =      54 NPHB   =       0
 IFBOX  =       0 NMXRS  =      43 IFCAP =       0 NEXTRA =       0
 NCOPY  =       0

 Implicit solvent radii are ArgH and AspGluO modified Bondi2 radii (mbondi3)
 Replacing prmtop screening parameters with GBn (igb=7) values

LOADING THE QUANTUM ATOMS AS GROUPS
     Mask :305; matches    43 atoms

--------------------------------------------------------------------------------
   2.  CONTROL  DATA  FOR  THE  RUN
--------------------------------------------------------------------------------

default_name

General flags:
     imin    =       0, nmropt  =       0

Nature and format of input:
     ntx     =       1, irest   =       0, ntrx    =       1

Nature and format of output:
     ntxo    =       2, ntpr    =      50, ntrx    =       1, ntwr    =    5000
     iwrap   =       0, ntwx    =     500, ntwv    =       0, ntwe    =       0
     ioutfm  =       1, ntwprt  =       0, idecomp =       0, rbornstat=      0

Potential function:
     ntf     =       2, ntb     =       0, igb     =       7, nsnb    =      25
     ipol    =       0, gbsa    =       0, iesp    =       0
     dielc   =   1.00000, cut     =9999.00000, intdiel =   1.00000
     saltcon =   0.00000, offset  =   0.09000, gbalpha=    1.09511
     gbbeta  =   1.90793, gbgamma =   2.50798, surften =   0.00500
     rdt     =   0.00000, rgbmax  =  25.00000  extdiel =  78.50000
     alpb  =        0

Frozen or restrained atoms:
     ibelly  =       0, ntr     =       0

Molecular dynamics:
     nstlim  =     10000, nscm    =      1000, nrespa  =         1
     t       =   0.00000, dt      =   0.00200, vlimit  =  20.00000

Langevin dynamics temperature regulation:
     ig      =   71277
     temp0   = 300.00000, tempi   =   0.00000, gamma_ln=   1.00000

SHAKE:
     ntc     =       2, jfastw  =       0
     tol     =   0.00001

QMMM options:
             ifqnt = True       nquant =       43
              qmgb =        2  qmcharge =        0   adjust_q =        2
              spin =        1     qmcut =  20.0000    qmshake =        1
          qmmm_int =        1
     lnk_atomic_no =        1   lnk_dis =   1.0900 lnk_method =        1
          qm_theory =     RM1 verbosity =        0
            qmqmdx = Analytical
      tight_p_conv = False (converge density to 0.05xSqrt[SCFCRT])
           scfconv = 0.100E-07  itrmax =     1000
      printcharges = False      printdipole = False      peptide_corr = False
    qmmmrij_incore = True
  qmqm_erep_incore = True
       pseudo_diag = True pseudo_diag_criteria =   0.0500
      diag_routine =        0
          qm_ewald =        0 qm_pme = False

--------------------------------------------------------------------------------
   3.  ATOMIC COORDINATES AND VELOCITIES
--------------------------------------------------------------------------------

default_name
 begin time read from input coords =     0.000 ps

 Number of triangulated 3-point waters found:        0
QMMM: ADJUSTING CHARGES
QMMM: ----------------------------------------------------------------------
QMMM: adjust_q = 2
QMMM: Uniformly adjusting the charge of MM atoms to conserve total charge.
QMMM:                             qm_charge =    0
QMMM: QM atom RESP charge sum (inc MM link) =    0.005
QMMM: Adjusting each MM atom resp charge by =    0.000
QMMM:          Sum of MM + QM region is now =   -2.995
QMMM: ----------------------------------------------------------------------

QMMM: Link Atom Information
QMMM: ------------------------------------------------------------------------
QMMM: nlink =     0
QMMM: ------------------------------------------------------------------------

  QMMM: QM Region Cartesian Coordinates (*=link atom)
  QMMM: QM_NO.   MM_NO.  ATOM         X         Y         Z
  QMMM:     1     4647      O        8.6635    1.0796   20.8075
  QMMM:     2     4648      C        8.1675    0.1318   21.4306
  QMMM:     3     4649      N        8.8697   -0.6192   22.3741
  QMMM:     4     4650      C       10.2285   -0.2720   22.5896
  QMMM:     5     4651      C       10.5436    0.9449   23.2824
  QMMM:     6     4652      N       11.8530    1.3813   23.3929
  QMMM:     7     4653      C       12.8106    0.5898   22.8758
  QMMM:     8     4654      C       12.5527   -0.6307   22.2373
  QMMM:     9     4655      C       11.2331   -1.0695   22.0852
  QMMM:    10     4656      N        6.8014   -0.1924   21.2620
  QMMM:    11     4657      C        6.1304    0.3517   20.1317
  QMMM:    12     4658      C        4.9791    1.1126   20.2926
  QMMM:    13     4659      C        4.3681    1.6613   19.1496
  QMMM:    14     4660      C        4.9406    1.3955   17.8806
  QMMM:    15     4661      N        6.0604    0.6773   17.7040
  QMMM:    16     4662      C        6.6450    0.1810   18.8285
  QMMM:    17     4663      H        8.5807   -1.5569   22.6707
  QMMM:    18     4664      N        9.5480    1.6638   23.8749
  QMMM:    19     4665      H       13.8328    0.9816   22.9872
  QMMM:    20     4666      C       13.5362   -1.4207   21.6049
  QMMM:    21     4667      H       11.0138   -2.0153   21.5645
  QMMM:    22     4668      C        6.1162   -1.1453   22.1310
  QMMM:    23     4669      H        4.5653    1.2981   21.2932
  QMMM:    24     4670      N        3.1953    2.3860   19.2530
  QMMM:    25     4671      H        4.5149    1.8073   16.9574
  QMMM:    26     4672      F        7.7786   -0.4710   18.6163
  QMMM:    27     4673      H        2.9752    2.8084   20.1451
  QMMM:    28     4674      H        2.9034    2.9186   18.4476
  QMMM:    29     4675      N       14.2519   -2.0778   20.9811
  QMMM:    30     4676      C        9.6588    3.0988   24.1801
  QMMM:    31     4677      H        8.6227    1.2447   23.9474
  QMMM:    32     4678      C        8.4231    3.5350   24.9744
  QMMM:    33     4679      H       10.6000    3.3175   24.7306
  QMMM:    34     4680      H        9.7353    3.6803   23.2301
  QMMM:    35     4681      H        8.4046    4.6271   25.0912
  QMMM:    36     4682      H        8.3919    3.0913   25.9791
  QMMM:    37     4683      H        7.4776    3.2672   24.4791
  QMMM:    38     4684      C        6.2945   -0.9440   23.5693
  QMMM:    39     4685      O        5.4611   -2.0250   21.5909
  QMMM:    40     4686      H        6.6421    0.0419   23.8982
  QMMM:    41     4687      C        5.9606   -1.9005   24.4375
  QMMM:    42     4688      H        5.5810   -2.8820   24.1547
  QMMM:    43     4689      H        6.0584   -1.7601   25.5141

--------------------------------------------------------------------------------
  3.1 QM CALCULATION INFO
--------------------------------------------------------------------------------

QMMM: SINGLET STATE CALCULATION
QMMM: RHF CALCULATION, NO. OF DOUBLY OCCUPIED LEVELS = 69

--------------------------------------------------------------------------------
   4.  RESULTS
 NSTEP =        0   TIME(PS) =       0.000  TEMP(K) =     0.00  PRESS =     0.0
 Etot   =    -12012.3682  EKtot   =         0.0000  EPtot      =    -12012.3682
 BOND   =       142.9841  ANGLE   =       553.2300  DIHED      =      1188.6127
 1-4 NB =       950.5130  1-4 EEL =     12120.0346  VDWAALS    =     -2652.4164
 EELEC  =    -21539.4550  EGB     =     -2951.2669  RESTRAINT  =         0.0000
 RM1ESCF=       -42.2689
 CMAP   =       217.6646
 ------------------------------------------------------------------------------

      A V E R A G E S   O V E R   10000 S T E P S

 NSTEP =    10000   TIME(PS) =      20.000  TEMP(K) =   285.24  PRESS =     0.0
 Etot   =     -5210.3949  EKtot   =      3331.0122  EPtot      =     -8541.4072
 BOND   =       882.8315  ANGLE   =      2282.7793  DIHED      =      1663.5862
 1-4 NB =      1042.8221  1-4 EEL =     12038.0605  VDWAALS    =     -2379.7729
 EELEC  =    -20928.0527  EGB     =     -3365.4505  RESTRAINT  =         0.0000
 RM1ESCF=        -3.5192
 CMAP   =       225.3086
 ------------------------------------------------------------------------------

      R M S  F L U C T U A T I O N S

 NSTEP =    10000   TIME(PS) =      20.000  TEMP(K) =    44.88  PRESS =     0.0
 Etot   =      1082.8565  EKtot   =       524.1023  EPtot      =       560.6721
 BOND   =       118.7012  ANGLE   =       276.4096  DIHED      =        81.9569
 1-4 NB =        20.1257  1-4 EEL =        40.0067  VDWAALS    =        52.4343
 EELEC  =       124.2945  EGB     =       104.0009  RESTRAINT  =         0.0000
 RM1ESCF=        11.4925
 CMAP   =         8.2054
 ------------------------------------------------------------------------------
