-------------------------------------------------------
          Amber 18 SANDER                              2018
          -------------------------------------------------------

  [-O]verwriting output

File Assignments:

 Here is the input file:

MD with GB7
 &cntrl
  nstlim = 10000, dt = 0.002,
  ntwr = 5000, ntwx = 500,
  ntc = 2, ntf = 2,
  ntt = 3, temp0 = 300, gamma_ln = 1.0,
  ntb = 0, igb = 7, cut = 9999.0,
  ifqnt = 1,
 /

 &qmmm
  qmmask = ':305', qmcharge = 0,
  qm_theory = 'RM1', qmcut = 20.0,
 /

--------------------------------------------------------------------------------
   1.  RESOURCE   USE:
--------------------------------------------------------------------------------

 NATOM  =    4692 NTYPES =      30 NBONH =    2316 MBONA  =    2429
 NTHETH =    5231 MTHETA =    3302 NPHIH =   10781 MPHIA  =   10514
 NHPARM =       0 NPARM  =       0 NNB   =   25806 NRES   =     305
 NBONA  =    2429 NTHETA =    3302 NPHIA =   10514 NUMBND =     100
 NUMANG =     226 NPTRA  =     213 NATYP =      53 NPHB   =       0
 IFBOX  =       0 NMXRS  =      46 IFCAP =       0 NEXTRA =       0
 NCOPY  =       0

 Implicit solvent radii are ArgH and AspGluO modified Bondi2 radii (mbondi3)
 Replacing prmtop screening parameters with GBn (igb=7) values

LOADING THE QUANTUM ATOMS AS GROUPS
     Mask :305; matches    46 atoms

--------------------------------------------------------------------------------
   2.  CONTROL  DATA  FOR  THE  RUN
--------------------------------------------------------------------------------

default_name

General flags:
     imin    =       0, nmropt  =       0

Nature and format of input:
     ntx     =       1, irest   =       0, ntrx    =       1

Nature and format of output:
     ntxo    =       2, ntpr    =      50, ntrx    =       1, ntwr    =    5000
     iwrap   =       0, ntwx    =     500, ntwv    =       0, ntwe    =       0
     ioutfm  =       1, ntwprt  =       0, idecomp =       0, rbornstat=      0

Potential function:
     ntf     =       2, ntb     =       0, igb     =       7, nsnb    =      25
     ipol    =       0, gbsa    =       0, iesp    =       0
     dielc   =   1.00000, cut     =9999.00000, intdiel =   1.00000
     saltcon =   0.00000, offset  =   0.09000, gbalpha=    1.09511
     gbbeta  =   1.90793, gbgamma =   2.50798, surften =   0.00500
     rdt     =   0.00000, rgbmax  =  25.00000  extdiel =  78.50000
     alpb  =        0

Frozen or restrained atoms:
     ibelly  =       0, ntr     =       0

Molecular dynamics:
     nstlim  =     10000, nscm    =      1000, nrespa  =         1
     t       =   0.00000, dt      =   0.00200, vlimit  =  20.00000

Langevin dynamics temperature regulation:
     ig      =   71277
     temp0   = 300.00000, tempi   =   0.00000, gamma_ln=   1.00000

SHAKE:
     ntc     =       2, jfastw  =       0
     tol     =   0.00001

QMMM options:
             ifqnt = True       nquant =       46
              qmgb =        2  qmcharge =        0   adjust_q =        2
              spin =        1     qmcut =  20.0000    qmshake =        1
          qmmm_int =        1
     lnk_atomic_no =        1   lnk_dis =   1.0900 lnk_method =        1
          qm_theory =     RM1 verbosity =        0
            qmqmdx = Analytical
      tight_p_conv = False (converge density to 0.05xSqrt[SCFCRT])
           scfconv = 0.100E-07  itrmax =     1000
      printcharges = False      printdipole = False      peptide_corr = False
    qmmmrij_incore = True
  qmqm_erep_incore = True
       pseudo_diag = True pseudo_diag_criteria =   0.0500
      diag_routine =        0
          qm_ewald =        0 qm_pme = False

--------------------------------------------------------------------------------
   3.  ATOMIC COORDINATES AND VELOCITIES
--------------------------------------------------------------------------------

default_name
 begin time read from input coords =     0.000 ps

 Number of triangulated 3-point waters found:        0
QMMM: ADJUSTING CHARGES
QMMM: ----------------------------------------------------------------------
QMMM: adjust_q = 2
QMMM: Uniformly adjusting the charge of MM atoms to conserve total charge.
QMMM:                             qm_charge =    0
QMMM: QM atom RESP charge sum (inc MM link) =    0.002
QMMM: Adjusting each MM atom resp charge by =    0.000
QMMM:          Sum of MM + QM region is now =   -2.998
QMMM: ----------------------------------------------------------------------

QMMM: Link Atom Information
QMMM: ------------------------------------------------------------------------
QMMM: nlink =     0
QMMM: ------------------------------------------------------------------------

  QMMM: QM Region Cartesian Coordinates (*=link atom)
  QMMM: QM_NO.   MM_NO.  ATOM         X         Y         Z
  QMMM:     1     4647      O        8.6196    1.0238   20.7181
  QMMM:     2     4648      C        8.1018    0.1640   21.4336
  QMMM:     3     4649      N        8.7791   -0.4375   22.4766
  QMMM:     4     4650      C       10.1503   -0.1366   22.6814
  QMMM:     5     4651      C       10.5189    1.0831   23.3431
  QMMM:     6     4652      N       11.8480    1.4734   23.4295
  QMMM:     7     4653      C       12.7691    0.6492   22.9081
  QMMM:     8     4654      C       12.4633   -0.5715   22.2877
  QMMM:     9     4655      C       11.1266   -0.9690   22.1702
  QMMM:    10     4656      C        6.6179   -0.2445   21.3033
  QMMM:    11     4657      C        6.0323    0.3962   20.0773
  QMMM:    12     4658      C        4.9000    1.1888   20.1754
  QMMM:    13     4659      C        4.3528    1.7544   19.0081
  QMMM:    14     4660      C        4.9785    1.4764   17.7702
  QMMM:    15     4661      N        6.0900    0.7302   17.6488
  QMMM:    16     4662      C        6.6009    0.2212   18.8043
  QMMM:    17     4663      H        8.3786   -1.2031   23.0202
  QMMM:    18     4664      N        9.5669    1.8729   23.9136
  QMMM:    19     4665      H       13.8056    1.0107   23.0049
  QMMM:    20     4666      C       13.4366   -1.3861   21.6732
  QMMM:    21     4667      H       10.8705   -1.9156   21.6702
  QMMM:    22     4668      H        4.4335    1.3850   21.1536
  QMMM:    23     4669      N        3.1767    2.4830   19.0656
  QMMM:    24     4670      H        4.6057    1.8995   16.8306
  QMMM:    25     4671      F        7.7242   -0.4632   18.6385
  QMMM:    26     4672      H        2.9893    2.9927   19.9198
  QMMM:    27     4673      H        2.8985    2.9715   18.2263
  QMMM:    28     4674      N       14.1777   -2.0511   21.0858
  QMMM:    29     4675      C        9.7994    3.2866   24.2586
  QMMM:    30     4676      H        8.6097    1.5239   23.9752
  QMMM:    31     4677      C        8.5864    3.8255   25.0160
  QMMM:    32     4678      H       10.7379    3.4015   24.8474
  QMMM:    33     4679      H        9.9684    3.8722   23.3235
  QMMM:    34     4680      H        8.6685    4.9111   25.1764
  QMMM:    35     4681      H        8.4707    3.3589   26.0045
  QMMM:    36     4682      H        7.6384    3.6744   24.4757
  QMMM:    37     4683      N        6.5170   -1.7007   21.2418
  QMMM:    38     4684      H        6.0980    0.1659   22.2243
  QMMM:    39     4685      C        5.7018   -2.4070   22.1217
  QMMM:    40     4686      H        7.0185   -2.1850   20.4966
  QMMM:    41     4687      C        5.7712   -3.8817   22.0837
  QMMM:    42     4688      O        4.9520   -1.8134   22.9007
  QMMM:    43     4689      C        6.9100   -4.5538   21.9562
  QMMM:    44     4690      H        4.8240   -4.3933   22.2956
  QMMM:    45     4691      H        7.8852   -4.0918   21.8331
  QMMM:    46     4692      H        6.9464   -5.6417   21.9793

--------------------------------------------------------------------------------
  3.1 QM CALCULATION INFO
--------------------------------------------------------------------------------

QMMM: SINGLET STATE CALCULATION
QMMM: RHF CALCULATION, NO. OF DOUBLY OCCUPIED LEVELS = 72

--------------------------------------------------------------------------------
   4.  RESULTS
 NSTEP =        0   TIME(PS) =       0.000  TEMP(K) =     0.00  PRESS =     0.0
 Etot   =    -12027.3113  EKtot   =         0.0000  EPtot      =    -12027.3113
 BOND   =       143.6539  ANGLE   =       554.0156  DIHED      =      1189.2370
 1-4 NB =       949.2294  1-4 EEL =     12119.7244  VDWAALS    =     -2654.7473
 EELEC  =    -21541.0785  EGB     =     -2954.9887  RESTRAINT  =         0.0000
 RM1ESCF=       -49.2999
 CMAP   =       216.9429
 ------------------------------------------------------------------------------

      A V E R A G E S   O V E R   10000 S T E P S

 NSTEP =    10000   TIME(PS) =      20.000  TEMP(K) =   285.49  PRESS =     0.0
 Etot   =     -5207.9711  EKtot   =      3335.8259  EPtot      =     -8543.7970
 BOND   =       884.0856  ANGLE   =      2283.8448  DIHED      =      1656.0044
 1-4 NB =      1045.2263  1-4 EEL =     12004.4342  VDWAALS    =     -2379.0455
 EELEC  =    -20897.8087  EGB     =     -3350.8703  RESTRAINT  =         0.0000
 RM1ESCF=       -12.7444
 CMAP   =       223.0766
 ------------------------------------------------------------------------------

      R M S  F L U C T U A T I O N S

 NSTEP =    10000   TIME(PS) =      20.000  TEMP(K) =    44.93  PRESS =     0.0
 Etot   =      1085.0372  EKtot   =       525.0416  EPtot      =       561.9966
 BOND   =       120.1065  ANGLE   =       276.9698  DIHED      =        78.5418
 1-4 NB =        19.8632  1-4 EEL =        42.0552  VDWAALS    =        56.2950
 EELEC  =       153.4308  EGB     =       119.1915  RESTRAINT  =         0.0000
 RM1ESCF=         9.9958
 CMAP   =         9.1073
 ------------------------------------------------------------------------------
