-------------------------------------------------------
          Amber 18 SANDER                              2018
          -------------------------------------------------------

  [-O]verwriting output

File Assignments:

 Here is the input file:

MD with GB7
 &cntrl
  nstlim = 10000, dt = 0.002,
  ntwr = 5000, ntwx = 500,
  ntc = 2, ntf = 2,
  ntt = 3, temp0 = 300, gamma_ln = 1.0,
  ntb = 0, igb = 7, cut = 9999.0,
  ifqnt = 1,
 /

 &qmmm
  qmmask = ':305', qmcharge = 0,
  qm_theory = 'RM1', qmcut = 20.0,
 /

--------------------------------------------------------------------------------
   1.  RESOURCE   USE:
--------------------------------------------------------------------------------

 NATOM  =    4691 NTYPES =      30 NBONH =    2315 MBONA  =    2430
 NTHETH =    5229 MTHETA =    3304 NPHIH =   10775 MPHIA  =   10519
 NHPARM =       0 NPARM  =       0 NNB   =   25801 NRES   =     305
 NBONA  =    2430 NTHETA =    3304 NPHIA =   10519 NUMBND =     102
 NUMANG =     226 NPTRA  =     215 NATYP =      55 NPHB   =       0
 IFBOX  =       0 NMXRS  =      45 IFCAP =       0 NEXTRA =       0
 NCOPY  =       0

 Implicit solvent radii are ArgH and AspGluO modified Bondi2 radii (mbondi3)
 Replacing prmtop screening parameters with GBn (igb=7) values

LOADING THE QUANTUM ATOMS AS GROUPS
     Mask :305; matches    45 atoms

--------------------------------------------------------------------------------
   2.  CONTROL  DATA  FOR  THE  RUN
--------------------------------------------------------------------------------

default_name

General flags:
     imin    =       0, nmropt  =       0

Nature and format of input:
     ntx     =       1, irest   =       0, ntrx    =       1

Nature and format of output:
     ntxo    =       2, ntpr    =      50, ntrx    =       1, ntwr    =    5000
     iwrap   =       0, ntwx    =     500, ntwv    =       0, ntwe    =       0
     ioutfm  =       1, ntwprt  =       0, idecomp =       0, rbornstat=      0

Potential function:
     ntf     =       2, ntb     =       0, igb     =       7, nsnb    =      25
     ipol    =       0, gbsa    =       0, iesp    =       0
     dielc   =   1.00000, cut     =9999.00000, intdiel =   1.00000
     saltcon =   0.00000, offset  =   0.09000, gbalpha=    1.09511
     gbbeta  =   1.90793, gbgamma =   2.50798, surften =   0.00500
     rdt     =   0.00000, rgbmax  =  25.00000  extdiel =  78.50000
     alpb  =        0

Frozen or restrained atoms:
     ibelly  =       0, ntr     =       0

Molecular dynamics:
     nstlim  =     10000, nscm    =      1000, nrespa  =         1
     t       =   0.00000, dt      =   0.00200, vlimit  =  20.00000

Langevin dynamics temperature regulation:
     ig      =   71277
     temp0   = 300.00000, tempi   =   0.00000, gamma_ln=   1.00000

SHAKE:
     ntc     =       2, jfastw  =       0
     tol     =   0.00001

QMMM options:
             ifqnt = True       nquant =       45
              qmgb =        2  qmcharge =        0   adjust_q =        2
              spin =        1     qmcut =  20.0000    qmshake =        1
          qmmm_int =        1
     lnk_atomic_no =        1   lnk_dis =   1.0900 lnk_method =        1
          qm_theory =     RM1 verbosity =        0
            qmqmdx = Analytical
      tight_p_conv = False (converge density to 0.05xSqrt[SCFCRT])
           scfconv = 0.100E-07  itrmax =     1000
      printcharges = False      printdipole = False      peptide_corr = False
    qmmmrij_incore = True
  qmqm_erep_incore = True
       pseudo_diag = True pseudo_diag_criteria =   0.0500
      diag_routine =        0
          qm_ewald =        0 qm_pme = False

--------------------------------------------------------------------------------
   3.  ATOMIC COORDINATES AND VELOCITIES
--------------------------------------------------------------------------------

default_name
 begin time read from input coords =     0.000 ps

 Number of triangulated 3-point waters found:        0
QMMM: ADJUSTING CHARGES
QMMM: ----------------------------------------------------------------------
QMMM: adjust_q = 2
QMMM: Uniformly adjusting the charge of MM atoms to conserve total charge.
QMMM:                             qm_charge =    0
QMMM: QM atom RESP charge sum (inc MM link) =    0.000
QMMM: Adjusting each MM atom resp charge by =    0.000
QMMM:          Sum of MM + QM region is now =   -3.000
QMMM: ----------------------------------------------------------------------

QMMM: Link Atom Information
QMMM: ------------------------------------------------------------------------
QMMM: nlink =     0
QMMM: ------------------------------------------------------------------------

  QMMM: QM Region Cartesian Coordinates (*=link atom)
  QMMM: QM_NO.   MM_NO.  ATOM         X         Y         Z
  QMMM:     1     4647      O        8.9338    1.2218   20.9950
  QMMM:     2     4648      N        9.4239    0.1737   22.9939
  QMMM:     3     4649      N        6.1753    0.1551   18.2264
  QMMM:     4     4650      N        4.1523    1.4950   18.7207
  QMMM:     5     4651      C        8.7112    0.2715   21.7673
  QMMM:     6     4652      N        7.6669   -0.6715   21.4409
  QMMM:     7     4653      C        6.8725   -0.2745   20.3451
  QMMM:     8     4654      C        7.1652   -0.4415   18.9965
  QMMM:     9     4655      C        5.2494    0.7663   19.0950
  QMMM:    10     4656      C        3.4548    1.9699   19.7734
  QMMM:    11     4657      C        3.7696    1.7496   21.1312
  QMMM:    12     4658      C        4.8901    1.0069   21.4742
  QMMM:    13     4659      C        5.6610    0.5031   20.4324
  QMMM:    14     4660      H        8.0075   -0.9435   18.5208
  QMMM:    15     4661      H        2.5802    2.5694   19.4919
  QMMM:    16     4662      H        3.1220    2.1855   21.9106
  QMMM:    17     4663      H        5.1652    0.8207   22.5188
  QMMM:    18     4664      H        6.1492    0.1571   17.1961
  QMMM:    19     4665      H        9.0665   -0.4348   23.7447
  QMMM:    20     4666      C       10.8284    0.1809   22.8464
  QMMM:    21     4667      C       11.5765    1.3916   23.0323
  QMMM:    22     4668      N       10.9972    2.6013   23.1816
  QMMM:    23     4669      N       12.9694    1.3630   23.0221
  QMMM:    24     4670      C       13.5771    0.2150   22.6147
  QMMM:    25     4671      C       12.8714   -0.9452   22.2609
  QMMM:    26     4672      H       14.6500    0.2787   22.5098
  QMMM:    27     4673      C       13.5514   -1.9802   21.6104
  QMMM:    28     4674      C       11.5003   -0.9795   22.4578
  QMMM:    29     4675      H       10.9442   -1.9137   22.2516
  QMMM:    30     4676      N       14.0921   -2.8142   21.0164
  QMMM:    31     4677      H       10.0006    2.6416   23.2580
  QMMM:    32     4678      C       11.7530    3.8369   22.9016
  QMMM:    33     4679      H       12.7748    3.8044   23.3723
  QMMM:    34     4680      H       11.9544    3.8937   21.7870
  QMMM:    35     4681      C       11.0063    5.0740   23.4005
  QMMM:    36     4682      H       11.4546    5.9808   22.9714
  QMMM:    37     4683      H        9.9531    5.1072   23.1342
  QMMM:    38     4684      H       11.0966    5.1526   24.4862
  QMMM:    39     4685      C        7.6201   -1.9916   21.9333
  QMMM:    40     4686      O        8.4418   -2.3742   22.7152
  QMMM:    41     4687      C        6.5033   -2.8804   21.4446
  QMMM:    42     4688      H        5.7861   -2.4344   20.7630
  QMMM:    43     4689      C        6.4476   -4.1337   21.8793
  QMMM:    44     4690      H        7.1405   -4.5693   22.5819
  QMMM:    45     4691      H        5.6737   -4.8171   21.5768

--------------------------------------------------------------------------------
  3.1 QM CALCULATION INFO
--------------------------------------------------------------------------------

QMMM: SINGLET STATE CALCULATION
QMMM: RHF CALCULATION, NO. OF DOUBLY OCCUPIED LEVELS = 70

--------------------------------------------------------------------------------
   4.  RESULTS
 NSTEP =        0   TIME(PS) =       0.000  TEMP(K) =     0.00  PRESS =     0.0
 Etot   =    -11910.9380  EKtot   =         0.0000  EPtot      =    -11910.9380
 BOND   =       143.7982  ANGLE   =       554.2173  DIHED      =      1195.8976
 1-4 NB =       952.9278  1-4 EEL =     12123.3667  VDWAALS    =     -2654.7999
 EELEC  =    -21542.9079  EGB     =     -2947.4208  RESTRAINT  =         0.0000
 RM1ESCF=        48.1287
 CMAP   =       215.8544
 ------------------------------------------------------------------------------

      A V E R A G E S   O V E R   10000 S T E P S

 NSTEP =    10000   TIME(PS) =      20.000  TEMP(K) =   284.95  PRESS =     0.0
 Etot   =     -5152.1498  EKtot   =      3329.0245  EPtot      =     -8481.1743
 BOND   =       884.0364  ANGLE   =      2278.3398  DIHED      =      1660.7017
 1-4 NB =      1045.1612  1-4 EEL =     12011.3961  VDWAALS    =     -2388.3934
 EELEC  =    -20952.1894  EGB     =     -3321.8840  RESTRAINT  =         0.0000
 RM1ESCF=        76.1699
 CMAP   =       225.4874
 ------------------------------------------------------------------------------

      R M S  F L U C T U A T I O N S

 NSTEP =    10000   TIME(PS) =      20.000  TEMP(K) =    44.50  PRESS =     0.0
 Etot   =      1070.1024  EKtot   =       519.8581  EPtot      =       552.1894
 BOND   =       121.0632  ANGLE   =       275.5203  DIHED      =        76.7050
 1-4 NB =        19.9488  1-4 EEL =        40.1081  VDWAALS    =        52.4361
 EELEC  =       118.0955  EGB     =        86.4701  RESTRAINT  =         0.0000
 RM1ESCF=         8.8766
 CMAP   =         9.0415
 ------------------------------------------------------------------------------
