-------------------------------------------------------
          Amber 18 SANDER                              2018
          -------------------------------------------------------

  [-O]verwriting output

File Assignments:

 Here is the input file:

MD with GB7
 &cntrl
  nstlim = 10000, dt = 0.002,
  ntwr = 5000, ntwx = 500,
  ntc = 2, ntf = 2,
  ntt = 3, temp0 = 300, gamma_ln = 1.0,
  ntb = 0, igb = 7, cut = 9999.0,
  ifqnt = 1,
 /

 &qmmm
  qmmask = ':305', qmcharge = 0,
  qm_theory = 'RM1', qmcut = 20.0,
 /

--------------------------------------------------------------------------------
   1.  RESOURCE   USE:
--------------------------------------------------------------------------------

 NATOM  =    4692 NTYPES =      29 NBONH =    2317 MBONA  =    2428
 NTHETH =    5233 MTHETA =    3300 NPHIH =   10785 MPHIA  =   10510
 NHPARM =       0 NPARM  =       0 NNB   =   25806 NRES   =     305
 NBONA  =    2428 NTHETA =    3300 NPHIA =   10510 NUMBND =      99
 NUMANG =     224 NPTRA  =     213 NATYP =      52 NPHB   =       0
 IFBOX  =       0 NMXRS  =      46 IFCAP =       0 NEXTRA =       0
 NCOPY  =       0

 Implicit solvent radii are ArgH and AspGluO modified Bondi2 radii (mbondi3)
 Replacing prmtop screening parameters with GBn (igb=7) values

LOADING THE QUANTUM ATOMS AS GROUPS
     Mask :305; matches    46 atoms

--------------------------------------------------------------------------------
   2.  CONTROL  DATA  FOR  THE  RUN
--------------------------------------------------------------------------------

default_name

General flags:
     imin    =       0, nmropt  =       0

Nature and format of input:
     ntx     =       1, irest   =       0, ntrx    =       1

Nature and format of output:
     ntxo    =       2, ntpr    =      50, ntrx    =       1, ntwr    =    5000
     iwrap   =       0, ntwx    =     500, ntwv    =       0, ntwe    =       0
     ioutfm  =       1, ntwprt  =       0, idecomp =       0, rbornstat=      0

Potential function:
     ntf     =       2, ntb     =       0, igb     =       7, nsnb    =      25
     ipol    =       0, gbsa    =       0, iesp    =       0
     dielc   =   1.00000, cut     =9999.00000, intdiel =   1.00000
     saltcon =   0.00000, offset  =   0.09000, gbalpha=    1.09511
     gbbeta  =   1.90793, gbgamma =   2.50798, surften =   0.00500
     rdt     =   0.00000, rgbmax  =  25.00000  extdiel =  78.50000
     alpb  =        0

Frozen or restrained atoms:
     ibelly  =       0, ntr     =       0

Molecular dynamics:
     nstlim  =     10000, nscm    =      1000, nrespa  =         1
     t       =   0.00000, dt      =   0.00200, vlimit  =  20.00000

Langevin dynamics temperature regulation:
     ig      =   71277
     temp0   = 300.00000, tempi   =   0.00000, gamma_ln=   1.00000

SHAKE:
     ntc     =       2, jfastw  =       0
     tol     =   0.00001

QMMM options:
             ifqnt = True       nquant =       46
              qmgb =        2  qmcharge =        0   adjust_q =        2
              spin =        1     qmcut =  20.0000    qmshake =        1
          qmmm_int =        1
     lnk_atomic_no =        1   lnk_dis =   1.0900 lnk_method =        1
          qm_theory =     RM1 verbosity =        0
            qmqmdx = Analytical
      tight_p_conv = False (converge density to 0.05xSqrt[SCFCRT])
           scfconv = 0.100E-07  itrmax =     1000
      printcharges = False      printdipole = False      peptide_corr = False
    qmmmrij_incore = True
  qmqm_erep_incore = True
       pseudo_diag = True pseudo_diag_criteria =   0.0500
      diag_routine =        0
          qm_ewald =        0 qm_pme = False

--------------------------------------------------------------------------------
   3.  ATOMIC COORDINATES AND VELOCITIES
--------------------------------------------------------------------------------

default_name
 begin time read from input coords =     0.000 ps

 Number of triangulated 3-point waters found:        0
QMMM: ADJUSTING CHARGES
QMMM: ----------------------------------------------------------------------
QMMM: adjust_q = 2
QMMM: Uniformly adjusting the charge of MM atoms to conserve total charge.
QMMM:                             qm_charge =    0
QMMM: QM atom RESP charge sum (inc MM link) =    0.001
QMMM: Adjusting each MM atom resp charge by =    0.000
QMMM:          Sum of MM + QM region is now =   -2.999
QMMM: ----------------------------------------------------------------------

QMMM: Link Atom Information
QMMM: ------------------------------------------------------------------------
QMMM: nlink =     0
QMMM: ------------------------------------------------------------------------

  QMMM: QM Region Cartesian Coordinates (*=link atom)
  QMMM: QM_NO.   MM_NO.  ATOM         X         Y         Z
  QMMM:     1     4647      O        8.6453    0.9516   20.7123
  QMMM:     2     4648      C        8.1145    0.1146   21.4422
  QMMM:     3     4649      N        8.7877   -0.4800   22.4921
  QMMM:     4     4650      C       10.1512   -0.1667   22.7080
  QMMM:     5     4651      C       10.5106    1.0619   23.3616
  QMMM:     6     4652      N       11.8328    1.4737   23.4278
  QMMM:     7     4653      C       12.7640    0.6484   22.9173
  QMMM:     8     4654      C       12.4689   -0.5802   22.3086
  QMMM:     9     4655      C       11.1353   -0.9863   22.1878
  QMMM:    10     4656      C        6.6306   -0.2849   21.3166
  QMMM:    11     4657      C        6.0529    0.3297   20.0720
  QMMM:    12     4658      C        4.9619    1.1811   20.1694
  QMMM:    13     4659      C        4.4292    1.7243   18.9876
  QMMM:    14     4660      C        5.0458    1.3843   17.7598
  QMMM:    15     4661      N        6.1118    0.5694   17.6732
  QMMM:    16     4662      C        6.6072    0.0520   18.8178
  QMMM:    17     4663      H        8.3721   -1.2133   23.0637
  QMMM:    18     4664      N        9.5592    1.8437   23.9376
  QMMM:    19     4665      H       13.7949    1.0236   23.0105
  QMMM:    20     4666      C       13.4420   -1.3805   21.6787
  QMMM:    21     4667      H       10.8918   -1.9266   21.6709
  QMMM:    22     4668      H        4.5202    1.4348   21.1435
  QMMM:    23     4669      N        3.2749    2.4870   19.0254
  QMMM:    24     4670      H        4.6974    1.8129   16.8171
  QMMM:    25     4671      H        7.4959   -0.5801   18.6896
  QMMM:    26     4672      H        3.0913    3.0215   19.8633
  QMMM:    27     4673      H        3.0004    2.9564   18.1758
  QMMM:    28     4674      N       14.1734   -2.0379   21.0576
  QMMM:    29     4675      C        9.7747    3.2687   24.2611
  QMMM:    30     4676      H        8.6066    1.4882   24.0020
  QMMM:    31     4677      C        8.5548    3.7968   25.0179
  QMMM:    32     4678      H       10.7102    3.4140   24.8461
  QMMM:    33     4679      H        9.9335    3.8332   23.3168
  QMMM:    34     4680      H        8.6207    4.8875   25.1481
  QMMM:    35     4681      H        8.4527    3.3531   26.0210
  QMMM:    36     4682      H        7.6046    3.6106   24.4895
  QMMM:    37     4683      N        6.5206   -1.7444   21.2634
  QMMM:    38     4684      H        6.1123    0.1425   22.2321
  QMMM:    39     4685      C        5.7271   -2.4577   22.1540
  QMMM:    40     4686      H        6.9838   -2.2166   20.4864
  QMMM:    41     4687      C        5.7517   -3.9354   22.0761
  QMMM:    42     4688      O        5.0275   -1.8717   22.9835
  QMMM:    43     4689      C        6.8686   -4.6254   21.8791
  QMMM:    44     4690      H        4.8048   -4.4281   22.3286
  QMMM:    45     4691      H        7.8445   -4.1692   21.7374
  QMMM:    46     4692      H        6.8918   -5.7146   21.8712

--------------------------------------------------------------------------------
  3.1 QM CALCULATION INFO
--------------------------------------------------------------------------------

QMMM: SINGLET STATE CALCULATION
QMMM: RHF CALCULATION, NO. OF DOUBLY OCCUPIED LEVELS = 69

--------------------------------------------------------------------------------
   4.  RESULTS
 NSTEP =        0   TIME(PS) =       0.000  TEMP(K) =     0.00  PRESS =     0.0
 Etot   =    -11981.9627  EKtot   =         0.0000  EPtot      =    -11981.9627
 BOND   =       143.5926  ANGLE   =       553.5554  DIHED      =      1190.0673
 1-4 NB =       949.3858  1-4 EEL =     12120.5847  VDWAALS    =     -2653.6733
 EELEC  =    -21542.3514  EGB     =     -2952.6558  RESTRAINT  =         0.0000
 RM1ESCF=        -7.8621
 CMAP   =       217.3942
 ------------------------------------------------------------------------------

      A V E R A G E S   O V E R   10000 S T E P S

 NSTEP =    10000   TIME(PS) =      20.000  TEMP(K) =   284.66  PRESS =     0.0
 Etot   =     -5195.8220  EKtot   =      3325.8611  EPtot      =     -8521.6831
 BOND   =       881.7298  ANGLE   =      2272.5340  DIHED      =      1661.4217
 1-4 NB =      1046.6727  1-4 EEL =     12014.0219  VDWAALS    =     -2381.8986
 EELEC  =    -20938.4779  EGB     =     -3321.5709  RESTRAINT  =         0.0000
 RM1ESCF=        22.5910
 CMAP   =       221.2934
 ------------------------------------------------------------------------------

      R M S  F L U C T U A T I O N S

 NSTEP =    10000   TIME(PS) =      20.000  TEMP(K) =    44.63  PRESS =     0.0
 Etot   =      1073.6034  EKtot   =       521.4462  EPtot      =       554.1601
 BOND   =       119.4833  ANGLE   =       272.9256  DIHED      =        80.3730
 1-4 NB =        20.2022  1-4 EEL =        39.9911  VDWAALS    =        55.4213
 EELEC  =       132.8198  EGB     =       106.6354  RESTRAINT  =         0.0000
 RM1ESCF=         8.9189
 CMAP   =         9.7089
 ------------------------------------------------------------------------------
